MODEL 1
REMARK VINA RESULT:    -5.780      0.000      0.000
REMARK INTER + INTRA:          -8.175
REMARK INTER:                  -7.976
REMARK INTRA:                  -0.199
REMARK UNBOUND:                -0.199
REMARK SMILES C=CCn1c(C)cc(C2=NN=C(NC(C)(C)C)SC2)c1C
REMARK SMILES IDX 9 1 10 2 11 3 12 4 13 5 18 6 19 7 8 11 4 12 5 13 20 14 7 15
REMARK SMILES IDX 3 17 2 20 1 21 6 25 21 29 14 33 15 34 16 38 17 42
REMARK H PARENT 13 8 19 9 19 10 7 16 3 18 3 19 1 22 1 23 2 24 6 26 6 27 6 28
REMARK H PARENT 21 30 21 31 21 32 15 35 15 36 15 37 16 39 16 40 16 41 17 43
REMARK H PARENT 17 44 17 45
REMARK Flexibility Score: inf
ROOT
ATOM      1  C   UNL     1      18.782  36.068 -10.812  1.00  0.00     0.082 C 
ATOM      2  N   UNL     1      19.503  35.979  -9.733  1.00  0.00    -0.151 NA
ATOM      3  N   UNL     1      19.513  34.783  -8.996  1.00  0.00    -0.125 NA
ATOM      4  C   UNL     1      19.375  33.624  -9.561  1.00  0.00     0.183 C 
ATOM      5  N   UNL     1      19.464  32.410  -8.935  1.00  0.00    -0.359 N 
ATOM      6  S   UNL     1      19.008  33.429 -11.262  1.00  0.00    -0.080 SA
ATOM      7  C   UNL     1      17.991  34.917 -11.365  1.00  0.00     0.046 C 
ATOM      8  H   UNL     1      35.039  43.759  25.879  1.00  0.00     0.163 HD
ATOM      9  H   UNL     1      35.039  43.759  25.879  1.00  0.00     0.045 H 
ATOM     10  H   UNL     1      35.039  43.759  25.879  1.00  0.00     0.045 H 
ENDROOT
BRANCH   1  11
ATOM     11  C   UNL     1      18.790  37.370 -11.485  1.00  0.00     0.020 A 
ATOM     12  N   UNL     1      19.336  39.155 -12.735  1.00  0.00    -0.345 N 
ATOM     13  C   UNL     1      18.184  39.491 -12.055  1.00  0.00     0.016 A 
ATOM     14  C   UNL     1      19.700  37.851 -12.425  1.00  0.00     0.024 A 
ATOM     15  C   UNL     1      17.823  38.397 -11.299  1.00  0.00    -0.032 A 
ATOM     16  H   UNL     1     -20.265  24.175 -12.714  1.00  0.00     0.065 H 
BRANCH  12  17
ATOM     17  C   UNL     1      20.053  40.044 -13.655  1.00  0.00     0.040 C 
ATOM     18  H   UNL     1      29.764  22.723  24.866  1.00  0.00     0.054 H 
ATOM     19  H   UNL     1      29.764  22.723  24.866  1.00  0.00     0.054 H 
BRANCH  17  20
ATOM     20  C   UNL     1      19.488  39.981 -15.045  1.00  0.00    -0.072 C 
ATOM     21  C   UNL     1      20.106  40.443 -16.140  1.00  0.00    -0.101 C 
ATOM     22  H   UNL     1      16.340  40.266  29.524  1.00  0.00     0.054 H 
ATOM     23  H   UNL     1      16.340  40.266  29.524  1.00  0.00     0.054 H 
ATOM     24  H   UNL     1      16.340  40.266  29.524  1.00  0.00     0.059 H 
ENDBRANCH  17  20
ENDBRANCH  12  17
BRANCH  13  25
ATOM     25  C   UNL     1      17.505  40.810 -12.159  1.00  0.00    -0.024 C 
ATOM     26  H   UNL     1      47.402  57.216 -35.408  1.00  0.00     0.029 H 
ATOM     27  H   UNL     1      47.402  57.216 -35.408  1.00  0.00     0.029 H 
ATOM     28  H   UNL     1      47.402  57.216 -35.408  1.00  0.00     0.029 H 
ENDBRANCH  13  25
BRANCH  14  29
ATOM     29  C   UNL     1      20.876  37.182 -13.059  1.00  0.00    -0.024 C 
ATOM     30  H   UNL     1      20.107  62.103  22.158  1.00  0.00     0.030 H 
ATOM     31  H   UNL     1      20.107  62.103  22.158  1.00  0.00     0.030 H 
ATOM     32  H   UNL     1      20.107  62.103  22.158  1.00  0.00     0.030 H 
ENDBRANCH  14  29
ENDBRANCH   1  11
BRANCH   5  33
ATOM     33  C   UNL     1      20.055  32.167  -7.620  1.00  0.00     0.031 C 
BRANCH  33  34
ATOM     34  C   UNL     1      19.941  30.656  -7.342  1.00  0.00    -0.042 C 
ATOM     35  H   UNL     1      39.715  43.039  23.626  1.00  0.00     0.025 H 
ATOM     36  H   UNL     1      39.715  43.039  23.626  1.00  0.00     0.025 H 
ATOM     37  H   UNL     1      39.715  43.039  23.626  1.00  0.00     0.025 H 
ENDBRANCH  33  34
BRANCH  33  38
ATOM     38  C   UNL     1      21.537  32.559  -7.619  1.00  0.00    -0.042 C 
ATOM     39  H   UNL     1      28.571  69.587  -4.742  1.00  0.00     0.025 H 
ATOM     40  H   UNL     1      28.571  69.587  -4.742  1.00  0.00     0.025 H 
ATOM     41  H   UNL     1      28.571  69.587  -4.742  1.00  0.00     0.025 H 
ENDBRANCH  33  38
BRANCH  33  42
ATOM     42  C   UNL     1      19.287  32.916  -6.524  1.00  0.00    -0.042 C 
ATOM     43  H   UNL     1       5.499  15.718  23.981  1.00  0.00     0.025 H 
ATOM     44  H   UNL     1       5.499  15.718  23.981  1.00  0.00     0.025 H 
ATOM     45  H   UNL     1       5.499  15.718  23.981  1.00  0.00     0.025 H 
ENDBRANCH  33  42
ENDBRANCH   5  33
TORSDOF 9
ENDMDL
MODEL 2
REMARK VINA RESULT:    -5.297      1.044      2.066
REMARK INTER + INTRA:          -7.509
REMARK INTER:                  -7.248
REMARK INTRA:                  -0.261
REMARK UNBOUND:                -0.199
REMARK SMILES C=CCn1c(C)cc(C2=NN=C(NC(C)(C)C)SC2)c1C
REMARK SMILES IDX 9 1 10 2 11 3 12 4 13 5 18 6 19 7 8 11 4 12 5 13 20 14 7 15
REMARK SMILES IDX 3 17 2 20 1 21 6 25 21 29 14 33 15 34 16 38 17 42
REMARK H PARENT 13 8 19 9 19 10 7 16 3 18 3 19 1 22 1 23 2 24 6 26 6 27 6 28
REMARK H PARENT 21 30 21 31 21 32 15 35 15 36 15 37 16 39 16 40 16 41 17 43
REMARK H PARENT 17 44 17 45
REMARK Flexibility Score: inf
ROOT
ATOM      1  C   UNL     1      19.384  36.068 -10.994  1.00  0.00     0.082 C 
ATOM      2  N   UNL     1      20.107  35.971  -9.917  1.00  0.00    -0.151 NA
ATOM      3  N   UNL     1      19.918  34.884  -9.045  1.00  0.00    -0.125 NA
ATOM      4  C   UNL     1      19.556  33.715  -9.471  1.00  0.00     0.183 C 
ATOM      5  N   UNL     1      19.438  32.583  -8.709  1.00  0.00    -0.359 N 
ATOM      6  S   UNL     1      19.111  33.400 -11.136  1.00  0.00    -0.080 SA
ATOM      7  C   UNL     1      18.381  35.028 -11.404  1.00  0.00     0.046 C 
ATOM      8  H   UNL     1      37.802  44.712  24.442  1.00  0.00     0.163 HD
ATOM      9  H   UNL     1      37.802  44.712  24.442  1.00  0.00     0.045 H 
ATOM     10  H   UNL     1      37.802  44.712  24.442  1.00  0.00     0.045 H 
ENDROOT
BRANCH   1  11
ATOM     11  C   UNL     1      19.611  37.262 -11.813  1.00  0.00     0.020 A 
ATOM     12  N   UNL     1      19.443  39.276 -12.795  1.00  0.00    -0.345 N 
ATOM     13  C   UNL     1      20.518  38.642 -13.383  1.00  0.00     0.016 A 
ATOM     14  C   UNL     1      18.899  38.461 -11.811  1.00  0.00     0.024 A 
ATOM     15  C   UNL     1      20.649  37.413 -12.775  1.00  0.00    -0.032 A 
ATOM     16  H   UNL     1      56.785  25.329   1.475  1.00  0.00     0.065 H 
BRANCH  12  17
ATOM     17  C   UNL     1      18.963  40.614 -13.155  1.00  0.00     0.040 C 
ATOM     18  H   UNL     1       2.576   0.744 -17.637  1.00  0.00     0.054 H 
ATOM     19  H   UNL     1       2.576   0.744 -17.637  1.00  0.00     0.054 H 
BRANCH  17  20
ATOM     20  C   UNL     1      19.675  41.688 -12.383  1.00  0.00    -0.072 C 
ATOM     21  C   UNL     1      20.554  42.550 -12.911  1.00  0.00    -0.101 C 
ATOM     22  H   UNL     1      -2.251   2.949 -16.249  1.00  0.00     0.054 H 
ATOM     23  H   UNL     1      -2.251   2.949 -16.249  1.00  0.00     0.054 H 
ATOM     24  H   UNL     1      -2.251   2.949 -16.249  1.00  0.00     0.059 H 
ENDBRANCH  17  20
ENDBRANCH  12  17
BRANCH  13  25
ATOM     25  C   UNL     1      21.345  39.231 -14.470  1.00  0.00    -0.024 C 
ATOM     26  H   UNL     1      56.771  25.202   1.395  1.00  0.00     0.029 H 
ATOM     27  H   UNL     1      56.771  25.202   1.395  1.00  0.00     0.029 H 
ATOM     28  H   UNL     1      56.771  25.202   1.395  1.00  0.00     0.029 H 
ENDBRANCH  13  25
BRANCH  14  29
ATOM     29  C   UNL     1      17.758  38.902 -10.954  1.00  0.00    -0.024 C 
ATOM     30  H   UNL     1      43.397   4.598  -5.689  1.00  0.00     0.030 H 
ATOM     31  H   UNL     1      43.397   4.598  -5.689  1.00  0.00     0.030 H 
ATOM     32  H   UNL     1      43.397   4.598  -5.689  1.00  0.00     0.030 H 
ENDBRANCH  14  29
ENDBRANCH   1  11
BRANCH   5  33
ATOM     33  C   UNL     1      20.012  32.385  -7.379  1.00  0.00     0.031 C 
BRANCH  33  34
ATOM     34  C   UNL     1      19.925  30.880  -7.065  1.00  0.00    -0.042 C 
ATOM     35  H   UNL     1      25.502  30.738 -45.435  1.00  0.00     0.025 H 
ATOM     36  H   UNL     1      25.502  30.738 -45.435  1.00  0.00     0.025 H 
ATOM     37  H   UNL     1      25.502  30.738 -45.435  1.00  0.00     0.025 H 
ENDBRANCH  33  34
BRANCH  33  38
ATOM     38  C   UNL     1      21.486  32.808  -7.363  1.00  0.00    -0.042 C 
ATOM     39  H   UNL     1      28.053  68.451   3.377  1.00  0.00     0.025 H 
ATOM     40  H   UNL     1      28.053  68.451   3.377  1.00  0.00     0.025 H 
ATOM     41  H   UNL     1      28.053  68.451   3.377  1.00  0.00     0.025 H 
ENDBRANCH  33  38
BRANCH  33  42
ATOM     42  C   UNL     1      19.210  33.144  -6.315  1.00  0.00    -0.042 C 
ATOM     43  H   UNL     1      28.536  67.691   5.345  1.00  0.00     0.025 H 
ATOM     44  H   UNL     1      28.536  67.691   5.345  1.00  0.00     0.025 H 
ATOM     45  H   UNL     1      28.536  67.691   5.345  1.00  0.00     0.025 H 
ENDBRANCH  33  42
ENDBRANCH   5  33
TORSDOF 9
ENDMDL
MODEL 3
REMARK VINA RESULT:    -5.172      2.374      3.084
REMARK INTER + INTRA:          -7.336
REMARK INTER:                  -7.087
REMARK INTRA:                  -0.250
REMARK UNBOUND:                -0.199
REMARK SMILES C=CCn1c(C)cc(C2=NN=C(NC(C)(C)C)SC2)c1C
REMARK SMILES IDX 9 1 10 2 11 3 12 4 13 5 18 6 19 7 8 11 4 12 5 13 20 14 7 15
REMARK SMILES IDX 3 17 2 20 1 21 6 25 21 29 14 33 15 34 16 38 17 42
REMARK H PARENT 13 8 19 9 19 10 7 16 3 18 3 19 1 22 1 23 2 24 6 26 6 27 6 28
REMARK H PARENT 21 30 21 31 21 32 15 35 15 36 15 37 16 39 16 40 16 41 17 43
REMARK H PARENT 17 44 17 45
REMARK Flexibility Score: inf
ROOT
ATOM      1  C   UNL     1      18.865  35.630 -11.311  1.00  0.00     0.082 C 
ATOM      2  N   UNL     1      17.917  34.923 -11.853  1.00  0.00    -0.151 NA
ATOM      3  N   UNL     1      17.864  33.537 -11.627  1.00  0.00    -0.125 NA
ATOM      4  C   UNL     1      18.266  33.004 -10.516  1.00  0.00     0.183 C 
ATOM      5  N   UNL     1      18.166  31.682 -10.178  1.00  0.00    -0.359 N 
ATOM      6  S   UNL     1      19.057  33.919  -9.249  1.00  0.00    -0.080 SA
ATOM      7  C   UNL     1      19.893  35.048 -10.383  1.00  0.00     0.046 C 
ATOM      8  H   UNL     1      -6.625  19.168 -38.677  1.00  0.00     0.163 HD
ATOM      9  H   UNL     1      -6.625  19.168 -38.677  1.00  0.00     0.045 H 
ATOM     10  H   UNL     1      -6.625  19.168 -38.677  1.00  0.00     0.045 H 
ENDROOT
BRANCH   1  11
ATOM     11  C   UNL     1      18.873  37.057 -11.646  1.00  0.00     0.020 A 
ATOM     12  N   UNL     1      19.451  39.109 -12.356  1.00  0.00    -0.345 N 
ATOM     13  C   UNL     1      18.213  39.235 -11.760  1.00  0.00     0.016 A 
ATOM     14  C   UNL     1      19.853  37.780 -12.325  1.00  0.00     0.024 A 
ATOM     15  C   UNL     1      17.834  37.979 -11.338  1.00  0.00    -0.032 A 
ATOM     16  H   UNL     1     -18.986  23.453 -20.728  1.00  0.00     0.065 H 
BRANCH  12  17
ATOM     17  C   UNL     1      20.213  40.217 -12.942  1.00  0.00     0.040 C 
ATOM     18  H   UNL     1     -14.249  17.411 -25.997  1.00  0.00     0.054 H 
ATOM     19  H   UNL     1     -14.249  17.411 -25.997  1.00  0.00     0.054 H 
BRANCH  17  20
ATOM     20  C   UNL     1      21.018  40.949 -11.905  1.00  0.00    -0.072 C 
ATOM     21  C   UNL     1      21.898  40.371 -11.076  1.00  0.00    -0.101 C 
ATOM     22  H   UNL     1     -13.775  35.999 -39.497  1.00  0.00     0.054 H 
ATOM     23  H   UNL     1     -13.775  35.999 -39.497  1.00  0.00     0.054 H 
ATOM     24  H   UNL     1     -13.775  35.999 -39.497  1.00  0.00     0.059 H 
ENDBRANCH  17  20
ENDBRANCH  12  17
BRANCH  13  25
ATOM     25  C   UNL     1      17.475  40.520 -11.627  1.00  0.00    -0.024 C 
ATOM     26  H   UNL     1     -13.466  28.204 -36.009  1.00  0.00     0.029 H 
ATOM     27  H   UNL     1     -13.466  28.204 -36.009  1.00  0.00     0.029 H 
ATOM     28  H   UNL     1     -13.466  28.204 -36.009  1.00  0.00     0.029 H 
ENDBRANCH  13  25
BRANCH  14  29
ATOM     29  C   UNL     1      21.128  37.321 -12.954  1.00  0.00    -0.024 C 
ATOM     30  H   UNL     1     -19.320  29.075 -25.519  1.00  0.00     0.030 H 
ATOM     31  H   UNL     1     -19.320  29.075 -25.519  1.00  0.00     0.030 H 
ATOM     32  H   UNL     1     -19.320  29.075 -25.519  1.00  0.00     0.030 H 
ENDBRANCH  14  29
ENDBRANCH   1  11
BRANCH   5  33
ATOM     33  C   UNL     1      17.303  30.696 -10.827  1.00  0.00     0.031 C 
BRANCH  33  34
ATOM     34  C   UNL     1      17.450  29.376 -10.046  1.00  0.00    -0.042 C 
ATOM     35  H   UNL     1     -18.076  40.908   0.361  1.00  0.00     0.025 H 
ATOM     36  H   UNL     1     -18.076  40.908   0.361  1.00  0.00     0.025 H 
ATOM     37  H   UNL     1     -18.076  40.908   0.361  1.00  0.00     0.025 H 
ENDBRANCH  33  34
BRANCH  33  38
ATOM     38  C   UNL     1      15.837  31.144 -10.766  1.00  0.00    -0.042 C 
ATOM     39  H   UNL     1       2.644  38.951  23.786  1.00  0.00     0.025 H 
ATOM     40  H   UNL     1       2.644  38.951  23.786  1.00  0.00     0.025 H 
ATOM     41  H   UNL     1       2.644  38.951  23.786  1.00  0.00     0.025 H 
ENDBRANCH  33  38
BRANCH  33  42
ATOM     42  C   UNL     1      17.742  30.448 -12.275  1.00  0.00    -0.042 C 
ATOM     43  H   UNL     1      21.511  -4.104 -26.711  1.00  0.00     0.025 H 
ATOM     44  H   UNL     1      21.511  -4.104 -26.711  1.00  0.00     0.025 H 
ATOM     45  H   UNL     1      21.511  -4.104 -26.711  1.00  0.00     0.025 H 
ENDBRANCH  33  42
ENDBRANCH   5  33
TORSDOF 9
ENDMDL
MODEL 4
REMARK VINA RESULT:    -5.077      2.852      7.954
REMARK INTER + INTRA:          -7.204
REMARK INTER:                  -7.578
REMARK INTRA:                   0.374
REMARK UNBOUND:                -0.199
REMARK SMILES C=CCn1c(C)cc(C2=NN=C(NC(C)(C)C)SC2)c1C
REMARK SMILES IDX 9 1 10 2 11 3 12 4 13 5 18 6 19 7 8 11 4 12 5 13 20 14 7 15
REMARK SMILES IDX 3 17 2 20 1 21 6 25 21 29 14 33 15 34 16 38 17 42
REMARK H PARENT 13 8 19 9 19 10 7 16 3 18 3 19 1 22 1 23 2 24 6 26 6 27 6 28
REMARK H PARENT 21 30 21 31 21 32 15 35 15 36 15 37 16 39 16 40 16 41 17 43
REMARK H PARENT 17 44 17 45
REMARK Flexibility Score: inf
ROOT
ATOM      1  C   UNL     1      18.382  34.892 -10.847  1.00  0.00     0.082 C 
ATOM      2  N   UNL     1      17.624  35.622 -11.612  1.00  0.00    -0.151 NA
ATOM      3  N   UNL     1      17.877  36.999 -11.735  1.00  0.00    -0.125 NA
ATOM      4  C   UNL     1      19.075  37.488 -11.661  1.00  0.00     0.183 C 
ATOM      5  N   UNL     1      19.421  38.798 -11.860  1.00  0.00    -0.359 N 
ATOM      6  S   UNL     1      20.477  36.524 -11.247  1.00  0.00    -0.080 SA
ATOM      7  C   UNL     1      19.580  35.435 -10.122  1.00  0.00     0.046 C 
ATOM      8  H   UNL     1     -14.362  52.460 -27.843  1.00  0.00     0.163 HD
ATOM      9  H   UNL     1     -14.362  52.460 -27.843  1.00  0.00     0.045 H 
ATOM     10  H   UNL     1     -14.362  52.460 -27.843  1.00  0.00     0.045 H 
ENDROOT
BRANCH   1  11
ATOM     11  C   UNL     1      18.010  33.478 -10.737  1.00  0.00     0.020 A 
ATOM     12  N   UNL     1      16.898  31.526 -10.758  1.00  0.00    -0.345 N 
ATOM     13  C   UNL     1      18.146  31.260 -10.234  1.00  0.00     0.016 A 
ATOM     14  C   UNL     1      16.811  32.868 -11.103  1.00  0.00     0.024 A 
ATOM     15  C   UNL     1      18.850  32.445 -10.234  1.00  0.00    -0.032 A 
ATOM     16  H   UNL     1      56.350  34.008 -25.926  1.00  0.00     0.065 H 
BRANCH  12  17
ATOM     17  C   UNL     1      15.836  30.530 -10.933  1.00  0.00     0.040 C 
ATOM     18  H   UNL     1      53.884  37.441 -30.499  1.00  0.00     0.054 H 
ATOM     19  H   UNL     1      53.884  37.441 -30.499  1.00  0.00     0.054 H 
BRANCH  17  20
ATOM     20  C   UNL     1      14.952  30.439  -9.722  1.00  0.00    -0.072 C 
ATOM     21  C   UNL     1      13.814  31.125  -9.556  1.00  0.00    -0.101 C 
ATOM     22  H   UNL     1      53.832  26.399 -31.365  1.00  0.00     0.054 H 
ATOM     23  H   UNL     1      53.832  26.399 -31.365  1.00  0.00     0.054 H 
ATOM     24  H   UNL     1      53.832  26.399 -31.365  1.00  0.00     0.059 H 
ENDBRANCH  17  20
ENDBRANCH  12  17
BRANCH  13  25
ATOM     25  C   UNL     1      18.590  29.919  -9.769  1.00  0.00    -0.024 C 
ATOM     26  H   UNL     1      34.945  19.869 -46.308  1.00  0.00     0.029 H 
ATOM     27  H   UNL     1      34.945  19.869 -46.308  1.00  0.00     0.029 H 
ATOM     28  H   UNL     1      34.945  19.869 -46.308  1.00  0.00     0.029 H 
ENDBRANCH  13  25
BRANCH  14  29
ATOM     29  C   UNL     1      15.597  33.444 -11.756  1.00  0.00    -0.024 C 
ATOM     30  H   UNL     1      25.983  33.556  30.125  1.00  0.00     0.030 H 
ATOM     31  H   UNL     1      25.983  33.556  30.125  1.00  0.00     0.030 H 
ATOM     32  H   UNL     1      25.983  33.556  30.125  1.00  0.00     0.030 H 
ENDBRANCH  14  29
ENDBRANCH   1  11
BRANCH   5  33
ATOM     33  C   UNL     1      18.594  39.810 -12.515  1.00  0.00     0.031 C 
BRANCH  33  34
ATOM     34  C   UNL     1      17.248  39.853 -11.768  1.00  0.00    -0.042 C 
ATOM     35  H   UNL     1      41.800  53.031  15.194  1.00  0.00     0.025 H 
ATOM     36  H   UNL     1      41.800  53.031  15.194  1.00  0.00     0.025 H 
ATOM     37  H   UNL     1      41.800  53.031  15.194  1.00  0.00     0.025 H 
ENDBRANCH  33  34
BRANCH  33  38
ATOM     38  C   UNL     1      19.257  41.190 -12.417  1.00  0.00    -0.042 C 
ATOM     39  H   UNL     1      39.872  51.501 -42.376  1.00  0.00     0.025 H 
ATOM     40  H   UNL     1      39.872  51.501 -42.376  1.00  0.00     0.025 H 
ATOM     41  H   UNL     1      39.872  51.501 -42.376  1.00  0.00     0.025 H 
ENDBRANCH  33  38
BRANCH  33  42
ATOM     42  C   UNL     1      18.319  39.436 -13.977  1.00  0.00    -0.042 C 
ATOM     43  H   UNL     1     -16.424  37.972 -28.371  1.00  0.00     0.025 H 
ATOM     44  H   UNL     1     -16.424  37.972 -28.371  1.00  0.00     0.025 H 
ATOM     45  H   UNL     1     -16.424  37.972 -28.371  1.00  0.00     0.025 H 
ENDBRANCH  33  42
ENDBRANCH   5  33
TORSDOF 9
ENDMDL
MODEL 5
REMARK VINA RESULT:    -4.923      2.977      7.920
REMARK INTER + INTRA:          -6.992
REMARK INTER:                  -6.768
REMARK INTRA:                  -0.224
REMARK UNBOUND:                -0.199
REMARK SMILES C=CCn1c(C)cc(C2=NN=C(NC(C)(C)C)SC2)c1C
REMARK SMILES IDX 9 1 10 2 11 3 12 4 13 5 18 6 19 7 8 11 4 12 5 13 20 14 7 15
REMARK SMILES IDX 3 17 2 20 1 21 6 25 21 29 14 33 15 34 16 38 17 42
REMARK H PARENT 13 8 19 9 19 10 7 16 3 18 3 19 1 22 1 23 2 24 6 26 6 27 6 28
REMARK H PARENT 21 30 21 31 21 32 15 35 15 36 15 37 16 39 16 40 16 41 17 43
REMARK H PARENT 17 44 17 45
REMARK Flexibility Score: inf
ROOT
ATOM      1  C   UNL     1      19.076  34.604 -11.662  1.00  0.00     0.082 C 
ATOM      2  N   UNL     1      18.074  35.408 -11.869  1.00  0.00    -0.151 NA
ATOM      3  N   UNL     1      18.249  36.794 -11.714  1.00  0.00    -0.125 NA
ATOM      4  C   UNL     1      19.377  37.379 -11.968  1.00  0.00     0.183 C 
ATOM      5  N   UNL     1      19.608  38.728 -11.933  1.00  0.00    -0.359 N 
ATOM      6  S   UNL     1      20.837  36.503 -12.376  1.00  0.00    -0.080 SA
ATOM      7  C   UNL     1      20.457  35.086 -11.323  1.00  0.00     0.046 C 
ATOM      8  H   UNL     1     -17.836  52.048  -9.959  1.00  0.00     0.163 HD
ATOM      9  H   UNL     1     -17.836  52.048  -9.959  1.00  0.00     0.045 H 
ATOM     10  H   UNL     1     -17.836  52.048  -9.959  1.00  0.00     0.045 H 
ENDROOT
BRANCH   1  11
ATOM     11  C   UNL     1      18.787  33.173 -11.793  1.00  0.00     0.020 A 
ATOM     12  N   UNL     1      18.391  31.000 -11.383  1.00  0.00    -0.345 N 
ATOM     13  C   UNL     1      18.439  31.137 -12.755  1.00  0.00     0.016 A 
ATOM     14  C   UNL     1      18.567  32.239 -10.782  1.00  0.00     0.024 A 
ATOM     15  C   UNL     1      18.659  32.470 -13.024  1.00  0.00    -0.032 A 
ATOM     16  H   UNL     1      -4.924  52.171 -39.681  1.00  0.00     0.065 H 
BRANCH  12  17
ATOM     17  C   UNL     1      18.174  29.733 -10.678  1.00  0.00     0.040 C 
ATOM     18  H   UNL     1      52.658  55.413 -16.116  1.00  0.00     0.054 H 
ATOM     19  H   UNL     1      52.658  55.413 -16.116  1.00  0.00     0.054 H 
BRANCH  17  20
ATOM     20  C   UNL     1      16.717  29.491 -10.403  1.00  0.00    -0.072 C 
ATOM     21  C   UNL     1      15.944  28.639 -11.089  1.00  0.00    -0.101 C 
ATOM     22  H   UNL     1      54.326  53.567  -8.893  1.00  0.00     0.054 H 
ATOM     23  H   UNL     1      54.326  53.567  -8.893  1.00  0.00     0.054 H 
ATOM     24  H   UNL     1      54.326  53.567  -8.893  1.00  0.00     0.059 H 
ENDBRANCH  17  20
ENDBRANCH  12  17
BRANCH  13  25
ATOM     25  C   UNL     1      18.277  30.013 -13.715  1.00  0.00    -0.024 C 
ATOM     26  H   UNL     1      -1.572  53.221 -41.480  1.00  0.00     0.029 H 
ATOM     27  H   UNL     1      -1.572  53.221 -41.480  1.00  0.00     0.029 H 
ATOM     28  H   UNL     1      -1.572  53.221 -41.480  1.00  0.00     0.029 H 
ENDBRANCH  13  25
BRANCH  14  29
ATOM     29  C   UNL     1      18.502  32.420  -9.301  1.00  0.00    -0.024 C 
ATOM     30  H   UNL     1      11.355  -3.477 -32.152  1.00  0.00     0.030 H 
ATOM     31  H   UNL     1      11.355  -3.477 -32.152  1.00  0.00     0.030 H 
ATOM     32  H   UNL     1      11.355  -3.477 -32.152  1.00  0.00     0.030 H 
ENDBRANCH  14  29
ENDBRANCH   1  11
BRANCH   5  33
ATOM     33  C   UNL     1      18.584  39.771 -11.943  1.00  0.00     0.031 C 
BRANCH  33  34
ATOM     34  C   UNL     1      19.304  41.119 -11.749  1.00  0.00    -0.042 C 
ATOM     35  H   UNL     1       9.044  42.830 -49.101  1.00  0.00     0.025 H 
ATOM     36  H   UNL     1       9.044  42.830 -49.101  1.00  0.00     0.025 H 
ATOM     37  H   UNL     1       9.044  42.830 -49.101  1.00  0.00     0.025 H 
ENDBRANCH  33  34
BRANCH  33  38
ATOM     38  C   UNL     1      17.853  39.792 -13.291  1.00  0.00    -0.042 C 
ATOM     39  H   UNL     1      34.769  59.648 -40.649  1.00  0.00     0.025 H 
ATOM     40  H   UNL     1      34.769  59.648 -40.649  1.00  0.00     0.025 H 
ATOM     41  H   UNL     1      34.769  59.648 -40.649  1.00  0.00     0.025 H 
ENDBRANCH  33  38
BRANCH  33  42
ATOM     42  C   UNL     1      17.596  39.585 -10.785  1.00  0.00    -0.042 C 
ATOM     43  H   UNL     1      17.716  61.583  19.752  1.00  0.00     0.025 H 
ATOM     44  H   UNL     1      17.716  61.583  19.752  1.00  0.00     0.025 H 
ATOM     45  H   UNL     1      17.716  61.583  19.752  1.00  0.00     0.025 H 
ENDBRANCH  33  42
ENDBRANCH   5  33
TORSDOF 9
ENDMDL
