MODEL 1
REMARK VINA RESULT:    -7.511      0.000      0.000
REMARK INTER + INTRA:         -12.642
REMARK INTER:                 -11.024
REMARK INTRA:                  -1.617
REMARK UNBOUND:                -1.617
REMARK SMILES Nc1ncnc2c1nc(NCc1ccc(-c3ccccc3)cc1)n2[C@@H]1O[C@H](CO)[C@@H](O)[C@H]1O
REMARK SMILES IDX 2 1 3 2 4 3 5 4 6 5 7 6 8 7 9 8 24 9 1 11 25 14 26 15 32 16
REMARK SMILES IDX 27 18 30 19 33 23 28 25 29 28 31 30 10 32 11 34 12 37 13 38
REMARK SMILES IDX 23 39 14 40 22 42 15 44 16 47 17 48 21 49 18 50 20 52 19 54
REMARK H PARENT 4 10 1 12 1 13 25 17 32 20 27 21 30 22 33 24 28 26 28 27 29 29
REMARK H PARENT 31 31 10 33 11 35 11 36 13 41 23 43 14 45 22 46 17 51 21 53
REMARK H PARENT 18 55 20 56 19 57
REMARK Flexibility Score: inf
ROOT
ATOM      1  C   UNL     1      20.250  36.525 -11.397  1.00  0.00     0.155 A 
ATOM      2  N   UNL     1      21.449  36.730 -10.809  1.00  0.00    -0.217 NA
ATOM      3  C   UNL     1      21.833  35.892  -9.828  1.00  0.00     0.120 A 
ATOM      4  N   UNL     1      21.155  34.848  -9.303  1.00  0.00    -0.216 NA
ATOM      5  C   UNL     1      19.957  34.701  -9.901  1.00  0.00     0.169 A 
ATOM      6  C   UNL     1      19.447  35.471 -10.931  1.00  0.00     0.152 A 
ATOM      7  N   UNL     1      18.202  35.029 -11.303  1.00  0.00    -0.207 NA
ATOM      8  C   UNL     1      17.962  33.984 -10.543  1.00  0.00     0.207 A 
ATOM      9  N   UNL     1      18.980  33.772  -9.631  1.00  0.00    -0.265 N 
ATOM     10  H   UNL     1      33.353  64.495 -29.022  1.00  0.00     0.106 H 
ENDROOT
BRANCH   1  11
ATOM     11  N   UNL     1      19.866  37.375 -12.423  1.00  0.00    -0.382 N 
ATOM     12  H   UNL     1      16.026  71.419 -16.802  1.00  0.00     0.158 HD
ATOM     13  H   UNL     1      16.026  71.419 -16.802  1.00  0.00     0.158 HD
ENDBRANCH   1  11
BRANCH   9  14
ATOM     14  C   UNL     1      19.082  32.691  -8.659  1.00  0.00     0.167 C 
ATOM     15  O   UNL     1      19.067  33.242  -7.313  1.00  0.00    -0.347 OA
ATOM     16  C   UNL     1      20.367  31.851  -8.737  1.00  0.00     0.128 C 
ATOM     17  H   UNL     1      24.061  49.046 -45.231  1.00  0.00     0.088 H 
ATOM     18  C   UNL     1      19.981  32.486  -6.484  1.00  0.00     0.112 C 
ATOM     19  C   UNL     1      20.456  31.305  -7.325  1.00  0.00     0.113 C 
ATOM     20  H   UNL     1      24.061  49.046 -45.231  1.00  0.00     0.068 H 
ATOM     21  H   UNL     1      24.061  49.046 -45.231  1.00  0.00     0.066 H 
ATOM     22  H   UNL     1      24.061  49.046 -45.231  1.00  0.00     0.066 H 
BRANCH  16  23
ATOM     23  O   UNL     1      20.322  30.765  -9.665  1.00  0.00    -0.386 OA
ATOM     24  H   UNL     1     -18.085  30.457 -21.407  1.00  0.00     0.211 HD
ENDBRANCH  16  23
BRANCH  18  25
ATOM     25  C   UNL     1      21.120  33.418  -6.049  1.00  0.00     0.072 C 
ATOM     26  H   UNL     1      49.464   8.819 -25.532  1.00  0.00     0.059 H 
ATOM     27  H   UNL     1      49.464   8.819 -25.532  1.00  0.00     0.059 H 
BRANCH  25  28
ATOM     28  O   UNL     1      20.930  33.904  -4.727  1.00  0.00    -0.394 OA
ATOM     29  H   UNL     1      54.167  27.740 -31.812  1.00  0.00     0.210 HD
ENDBRANCH  25  28
ENDBRANCH  18  25
BRANCH  19  30
ATOM     30  O   UNL     1      19.542  30.205  -7.198  1.00  0.00    -0.387 OA
ATOM     31  H   UNL     1      10.499  66.990  12.474  1.00  0.00     0.211 HD
ENDBRANCH  19  30
ENDBRANCH   9  14
BRANCH   8  32
ATOM     32  N   UNL     1      16.888  33.172 -10.605  1.00  0.00    -0.351 N 
ATOM     33  H   UNL     1      51.153  40.979 -29.481  1.00  0.00     0.163 HD
BRANCH  32  34
ATOM     34  C   UNL     1      16.608  32.469 -11.841  1.00  0.00     0.043 C 
ATOM     35  H   UNL     1       4.565  64.354 -32.220  1.00  0.00     0.054 H 
ATOM     36  H   UNL     1       4.565  64.354 -32.220  1.00  0.00     0.054 H 
BRANCH  34  37
ATOM     37  C   UNL     1      17.244  31.099 -11.797  1.00  0.00    -0.029 A 
ATOM     38  C   UNL     1      16.857  30.171 -10.821  1.00  0.00    -0.057 A 
ATOM     39  C   UNL     1      18.223  30.729 -12.727  1.00  0.00    -0.057 A 
ATOM     40  C   UNL     1      17.441  28.902 -10.775  1.00  0.00    -0.054 A 
ATOM     41  H   UNL     1      13.818  69.754   1.538  1.00  0.00     0.063 H 
ATOM     42  C   UNL     1      18.806  29.458 -12.676  1.00  0.00    -0.054 A 
ATOM     43  H   UNL     1      13.818  69.754   1.538  1.00  0.00     0.063 H 
ATOM     44  C   UNL     1      18.428  28.524 -11.699  1.00  0.00    -0.018 A 
ATOM     45  H   UNL     1      13.818  69.754   1.538  1.00  0.00     0.063 H 
ATOM     46  H   UNL     1      13.818  69.754   1.538  1.00  0.00     0.063 H 
BRANCH  44  47
ATOM     47  C   UNL     1      19.044  27.187 -11.647  1.00  0.00    -0.018 A 
ATOM     48  C   UNL     1      19.593  26.597 -12.799  1.00  0.00    -0.054 A 
ATOM     49  C   UNL     1      19.102  26.462 -10.443  1.00  0.00    -0.054 A 
ATOM     50  C   UNL     1      20.178  25.329 -12.750  1.00  0.00    -0.062 A 
ATOM     51  H   UNL     1      -1.804  61.234 -32.123  1.00  0.00     0.063 H 
ATOM     52  C   UNL     1      19.687  25.194 -10.392  1.00  0.00    -0.062 A 
ATOM     53  H   UNL     1      -1.804  61.234 -32.123  1.00  0.00     0.063 H 
ATOM     54  C   UNL     1      20.224  24.627 -11.547  1.00  0.00    -0.062 A 
ATOM     55  H   UNL     1      -1.804  61.234 -32.123  1.00  0.00     0.062 H 
ATOM     56  H   UNL     1      -1.804  61.234 -32.123  1.00  0.00     0.062 H 
ATOM     57  H   UNL     1      -1.804  61.234 -32.123  1.00  0.00     0.062 H 
ENDBRANCH  44  47
ENDBRANCH  34  37
ENDBRANCH  32  34
ENDBRANCH   8  32
TORSDOF 10
ENDMDL
MODEL 2
REMARK VINA RESULT:    -7.132      2.856      7.292
REMARK INTER + INTRA:         -12.085
REMARK INTER:                 -10.687
REMARK INTRA:                  -1.398
REMARK UNBOUND:                -1.617
REMARK SMILES Nc1ncnc2c1nc(NCc1ccc(-c3ccccc3)cc1)n2[C@@H]1O[C@H](CO)[C@@H](O)[C@H]1O
REMARK SMILES IDX 2 1 3 2 4 3 5 4 6 5 7 6 8 7 9 8 24 9 1 11 25 14 26 15 32 16
REMARK SMILES IDX 27 18 30 19 33 23 28 25 29 28 31 30 10 32 11 34 12 37 13 38
REMARK SMILES IDX 23 39 14 40 22 42 15 44 16 47 17 48 21 49 18 50 20 52 19 54
REMARK H PARENT 4 10 1 12 1 13 25 17 32 20 27 21 30 22 33 24 28 26 28 27 29 29
REMARK H PARENT 31 31 10 33 11 35 11 36 13 41 23 43 14 45 22 46 17 51 21 53
REMARK H PARENT 18 55 20 56 19 57
REMARK Flexibility Score: inf
ROOT
ATOM      1  C   UNL     1      14.672  30.697 -10.061  1.00  0.00     0.155 A 
ATOM      2  N   UNL     1      14.728  29.350  -9.977  1.00  0.00    -0.217 NA
ATOM      3  C   UNL     1      15.748  28.712 -10.584  1.00  0.00     0.120 A 
ATOM      4  N   UNL     1      16.749  29.242 -11.320  1.00  0.00    -0.216 NA
ATOM      5  C   UNL     1      16.634  30.582 -11.397  1.00  0.00     0.169 A 
ATOM      6  C   UNL     1      15.657  31.364 -10.807  1.00  0.00     0.152 A 
ATOM      7  N   UNL     1      15.858  32.693 -11.087  1.00  0.00    -0.207 NA
ATOM      8  C   UNL     1      16.957  32.735 -11.806  1.00  0.00     0.207 A 
ATOM      9  N   UNL     1      17.444  31.467 -12.069  1.00  0.00    -0.265 N 
ATOM     10  H   UNL     1     -13.414  22.547  10.173  1.00  0.00     0.106 H 
ENDROOT
BRANCH   1  11
ATOM     11  N   UNL     1      13.635  31.354  -9.416  1.00  0.00    -0.382 N 
ATOM     12  H   UNL     1     -20.560  34.302 -13.278  1.00  0.00     0.158 HD
ATOM     13  H   UNL     1     -20.560  34.302 -13.278  1.00  0.00     0.158 HD
ENDBRANCH   1  11
BRANCH   9  14
ATOM     14  C   UNL     1      18.659  31.123 -12.797  1.00  0.00     0.167 C 
ATOM     15  O   UNL     1      18.344  30.169 -13.849  1.00  0.00    -0.347 OA
ATOM     16  C   UNL     1      19.762  30.453 -11.961  1.00  0.00     0.128 C 
ATOM     17  H   UNL     1      -1.651  44.544  19.408  1.00  0.00     0.088 H 
ATOM     18  C   UNL     1      19.422  29.209 -13.952  1.00  0.00     0.112 C 
ATOM     19  C   UNL     1      20.532  29.700 -13.028  1.00  0.00     0.113 C 
ATOM     20  H   UNL     1      -1.651  44.544  19.408  1.00  0.00     0.068 H 
ATOM     21  H   UNL     1      -1.651  44.544  19.408  1.00  0.00     0.066 H 
ATOM     22  H   UNL     1      -1.651  44.544  19.408  1.00  0.00     0.066 H 
BRANCH  16  23
ATOM     23  O   UNL     1      20.641  31.356 -11.288  1.00  0.00    -0.386 OA
ATOM     24  H   UNL     1      -3.967  51.215  13.475  1.00  0.00     0.211 HD
ENDBRANCH  16  23
BRANCH  18  25
ATOM     25  C   UNL     1      18.877  27.828 -13.566  1.00  0.00     0.072 C 
ATOM     26  H   UNL     1      57.927  11.615 -14.128  1.00  0.00     0.059 H 
ATOM     27  H   UNL     1      57.927  11.615 -14.128  1.00  0.00     0.059 H 
BRANCH  25  28
ATOM     28  O   UNL     1      17.646  27.544 -14.217  1.00  0.00    -0.394 OA
ATOM     29  H   UNL     1      59.219  32.089 -25.499  1.00  0.00     0.210 HD
ENDBRANCH  25  28
ENDBRANCH  18  25
BRANCH  19  30
ATOM     30  O   UNL     1      21.384  30.625 -13.722  1.00  0.00    -0.387 OA
ATOM     31  H   UNL     1     -13.875  16.418 -33.136  1.00  0.00     0.211 HD
ENDBRANCH  19  30
ENDBRANCH   9  14
BRANCH   8  32
ATOM     32  N   UNL     1      17.589  33.841 -12.247  1.00  0.00    -0.351 N 
ATOM     33  H   UNL     1       6.265  15.809  21.487  1.00  0.00     0.163 HD
BRANCH  32  34
ATOM     34  C   UNL     1      17.748  34.966 -11.347  1.00  0.00     0.043 C 
ATOM     35  H   UNL     1     -17.960  50.938 -18.186  1.00  0.00     0.054 H 
ATOM     36  H   UNL     1     -17.960  50.938 -18.186  1.00  0.00     0.054 H 
BRANCH  34  37
ATOM     37  C   UNL     1      18.925  34.717 -10.433  1.00  0.00    -0.029 A 
ATOM     38  C   UNL     1      18.778  33.915  -9.294  1.00  0.00    -0.057 A 
ATOM     39  C   UNL     1      20.181  35.275 -10.706  1.00  0.00    -0.057 A 
ATOM     40  C   UNL     1      19.863  33.680  -8.444  1.00  0.00    -0.054 A 
ATOM     41  H   UNL     1     -15.827  54.321 -20.010  1.00  0.00     0.063 H 
ATOM     42  C   UNL     1      21.263  35.038  -9.852  1.00  0.00    -0.054 A 
ATOM     43  H   UNL     1     -15.827  54.321 -20.010  1.00  0.00     0.063 H 
ATOM     44  C   UNL     1      21.124  34.240  -8.706  1.00  0.00    -0.018 A 
ATOM     45  H   UNL     1     -15.827  54.321 -20.010  1.00  0.00     0.063 H 
ATOM     46  H   UNL     1     -15.827  54.321 -20.010  1.00  0.00     0.063 H 
BRANCH  44  47
ATOM     47  C   UNL     1      22.266  33.994  -7.808  1.00  0.00    -0.018 A 
ATOM     48  C   UNL     1      23.544  34.497  -8.107  1.00  0.00    -0.054 A 
ATOM     49  C   UNL     1      22.109  33.250  -6.625  1.00  0.00    -0.054 A 
ATOM     50  C   UNL     1      24.627  34.263  -7.255  1.00  0.00    -0.062 A 
ATOM     51  H   UNL     1       3.337  42.700 -47.545  1.00  0.00     0.063 H 
ATOM     52  C   UNL     1      23.191  33.016  -5.772  1.00  0.00    -0.062 A 
ATOM     53  H   UNL     1       3.337  42.700 -47.545  1.00  0.00     0.063 H 
ATOM     54  C   UNL     1      24.451  33.522  -6.088  1.00  0.00    -0.062 A 
ATOM     55  H   UNL     1       3.337  42.700 -47.545  1.00  0.00     0.062 H 
ATOM     56  H   UNL     1       3.337  42.700 -47.545  1.00  0.00     0.062 H 
ATOM     57  H   UNL     1       3.337  42.700 -47.545  1.00  0.00     0.062 H 
ENDBRANCH  44  47
ENDBRANCH  34  37
ENDBRANCH  32  34
ENDBRANCH   8  32
TORSDOF 10
ENDMDL
MODEL 3
REMARK VINA RESULT:    -7.031      2.883      8.045
REMARK INTER + INTRA:         -11.937
REMARK INTER:                 -10.754
REMARK INTRA:                  -1.183
REMARK UNBOUND:                -1.617
REMARK SMILES Nc1ncnc2c1nc(NCc1ccc(-c3ccccc3)cc1)n2[C@@H]1O[C@H](CO)[C@@H](O)[C@H]1O
REMARK SMILES IDX 2 1 3 2 4 3 5 4 6 5 7 6 8 7 9 8 24 9 1 11 25 14 26 15 32 16
REMARK SMILES IDX 27 18 30 19 33 23 28 25 29 28 31 30 10 32 11 34 12 37 13 38
REMARK SMILES IDX 23 39 14 40 22 42 15 44 16 47 17 48 21 49 18 50 20 52 19 54
REMARK H PARENT 4 10 1 12 1 13 25 17 32 20 27 21 30 22 33 24 28 26 28 27 29 29
REMARK H PARENT 31 31 10 33 11 35 11 36 13 41 23 43 14 45 22 46 17 51 21 53
REMARK H PARENT 18 55 20 56 19 57
REMARK Flexibility Score: inf
ROOT
ATOM      1  C   UNL     1      17.497  28.746 -12.658  1.00  0.00     0.155 A 
ATOM      2  N   UNL     1      16.603  28.048 -11.923  1.00  0.00    -0.217 NA
ATOM      3  C   UNL     1      16.413  28.406 -10.638  1.00  0.00     0.120 A 
ATOM      4  N   UNL     1      17.030  29.384  -9.939  1.00  0.00    -0.216 NA
ATOM      5  C   UNL     1      17.928  30.030 -10.706  1.00  0.00     0.169 A 
ATOM      6  C   UNL     1      18.209  29.785 -12.038  1.00  0.00     0.152 A 
ATOM      7  N   UNL     1      19.173  30.645 -12.502  1.00  0.00    -0.207 NA
ATOM      8  C   UNL     1      19.457  31.430 -11.488  1.00  0.00     0.207 A 
ATOM      9  N   UNL     1      18.763  31.064 -10.349  1.00  0.00    -0.265 N 
ATOM     10  H   UNL     1       4.546   5.042 -35.789  1.00  0.00     0.106 H 
ENDROOT
BRANCH   1  11
ATOM     11  N   UNL     1      17.675  28.391 -13.987  1.00  0.00    -0.382 N 
ATOM     12  H   UNL     1      39.791  36.129 -39.362  1.00  0.00     0.158 HD
ATOM     13  H   UNL     1      39.791  36.129 -39.362  1.00  0.00     0.158 HD
ENDBRANCH   1  11
BRANCH   9  14
ATOM     14  C   UNL     1      18.790  31.723  -9.049  1.00  0.00     0.167 C 
ATOM     15  O   UNL     1      18.843  33.165  -9.235  1.00  0.00    -0.347 OA
ATOM     16  C   UNL     1      20.000  31.386  -8.163  1.00  0.00     0.128 C 
ATOM     17  H   UNL     1      24.517   0.382 -33.843  1.00  0.00     0.088 H 
ATOM     18  C   UNL     1      19.704  33.739  -8.223  1.00  0.00     0.112 C 
ATOM     19  C   UNL     1      20.066  32.607  -7.266  1.00  0.00     0.113 C 
ATOM     20  H   UNL     1      24.517   0.382 -33.843  1.00  0.00     0.068 H 
ATOM     21  H   UNL     1      24.517   0.382 -33.843  1.00  0.00     0.066 H 
ATOM     22  H   UNL     1      24.517   0.382 -33.843  1.00  0.00     0.066 H 
BRANCH  16  23
ATOM     23  O   UNL     1      19.850  30.214  -7.359  1.00  0.00    -0.386 OA
ATOM     24  H   UNL     1      53.591  29.781  14.425  1.00  0.00     0.211 HD
ENDBRANCH  16  23
BRANCH  18  25
ATOM     25  C   UNL     1      20.923  34.355  -8.923  1.00  0.00     0.072 C 
ATOM     26  H   UNL     1      47.064  12.762  16.345  1.00  0.00     0.059 H 
ATOM     27  H   UNL     1      47.064  12.762  16.345  1.00  0.00     0.059 H 
BRANCH  25  28
ATOM     28  O   UNL     1      20.714  35.725  -9.242  1.00  0.00    -0.394 OA
ATOM     29  H   UNL     1      -1.956   3.501   8.760  1.00  0.00     0.210 HD
ENDBRANCH  25  28
ENDBRANCH  18  25
BRANCH  19  30
ATOM     30  O   UNL     1      19.067  32.483  -6.243  1.00  0.00    -0.387 OA
ATOM     31  H   UNL     1      26.027  -0.465 -32.471  1.00  0.00     0.211 HD
ENDBRANCH  19  30
ENDBRANCH   9  14
BRANCH   8  32
ATOM     32  N   UNL     1      20.296  32.485 -11.496  1.00  0.00    -0.351 N 
ATOM     33  H   UNL     1      -9.309  16.086 -32.613  1.00  0.00     0.163 HD
BRANCH  32  34
ATOM     34  C   UNL     1      20.490  33.221 -12.729  1.00  0.00     0.043 C 
ATOM     35  H   UNL     1      24.770   1.354 -36.035  1.00  0.00     0.054 H 
ATOM     36  H   UNL     1      24.770   1.354 -36.035  1.00  0.00     0.054 H 
BRANCH  34  37
ATOM     37  C   UNL     1      20.068  34.658 -12.530  1.00  0.00    -0.029 A 
ATOM     38  C   UNL     1      20.962  35.701 -12.805  1.00  0.00    -0.057 A 
ATOM     39  C   UNL     1      18.782  34.975 -12.075  1.00  0.00    -0.057 A 
ATOM     40  C   UNL     1      20.578  37.033 -12.624  1.00  0.00    -0.054 A 
ATOM     41  H   UNL     1      39.461   0.684  -0.142  1.00  0.00     0.063 H 
ATOM     42  C   UNL     1      18.403  36.310 -11.893  1.00  0.00    -0.054 A 
ATOM     43  H   UNL     1      39.461   0.684  -0.142  1.00  0.00     0.063 H 
ATOM     44  C   UNL     1      19.293  37.361 -12.162  1.00  0.00    -0.018 A 
ATOM     45  H   UNL     1      39.461   0.684  -0.142  1.00  0.00     0.063 H 
ATOM     46  H   UNL     1      39.461   0.684  -0.142  1.00  0.00     0.063 H 
BRANCH  44  47
ATOM     47  C   UNL     1      18.891  38.766 -11.969  1.00  0.00    -0.018 A 
ATOM     48  C   UNL     1      17.548  39.108 -11.732  1.00  0.00    -0.054 A 
ATOM     49  C   UNL     1      19.839  39.803 -12.014  1.00  0.00    -0.054 A 
ATOM     50  C   UNL     1      17.167  40.440 -11.548  1.00  0.00    -0.062 A 
ATOM     51  H   UNL     1      11.828  -3.986 -23.610  1.00  0.00     0.063 H 
ATOM     52  C   UNL     1      19.460  41.135 -11.830  1.00  0.00    -0.062 A 
ATOM     53  H   UNL     1      11.828  -3.986 -23.610  1.00  0.00     0.063 H 
ATOM     54  C   UNL     1      18.122  41.454 -11.599  1.00  0.00    -0.062 A 
ATOM     55  H   UNL     1      11.828  -3.986 -23.610  1.00  0.00     0.062 H 
ATOM     56  H   UNL     1      11.828  -3.986 -23.610  1.00  0.00     0.062 H 
ATOM     57  H   UNL     1      11.828  -3.986 -23.610  1.00  0.00     0.062 H 
ENDBRANCH  44  47
ENDBRANCH  34  37
ENDBRANCH  32  34
ENDBRANCH   8  32
TORSDOF 10
ENDMDL
MODEL 4
REMARK VINA RESULT:    -6.957      1.725      2.224
REMARK INTER + INTRA:         -11.828
REMARK INTER:                 -10.575
REMARK INTRA:                  -1.254
REMARK UNBOUND:                -1.617
REMARK SMILES Nc1ncnc2c1nc(NCc1ccc(-c3ccccc3)cc1)n2[C@@H]1O[C@H](CO)[C@@H](O)[C@H]1O
REMARK SMILES IDX 2 1 3 2 4 3 5 4 6 5 7 6 8 7 9 8 24 9 1 11 25 14 26 15 32 16
REMARK SMILES IDX 27 18 30 19 33 23 28 25 29 28 31 30 10 32 11 34 12 37 13 38
REMARK SMILES IDX 23 39 14 40 22 42 15 44 16 47 17 48 21 49 18 50 20 52 19 54
REMARK H PARENT 4 10 1 12 1 13 25 17 32 20 27 21 30 22 33 24 28 26 28 27 29 29
REMARK H PARENT 31 31 10 33 11 35 11 36 13 41 23 43 14 45 22 46 17 51 21 53
REMARK H PARENT 18 55 20 56 19 57
REMARK Flexibility Score: inf
ROOT
ATOM      1  C   UNL     1      20.358  33.379 -12.914  1.00  0.00     0.155 A 
ATOM      2  N   UNL     1      21.522  34.007 -12.634  1.00  0.00    -0.217 NA
ATOM      3  C   UNL     1      21.894  34.121 -11.345  1.00  0.00     0.120 A 
ATOM      4  N   UNL     1      21.235  33.705 -10.241  1.00  0.00    -0.216 NA
ATOM      5  C   UNL     1      20.071  33.112 -10.570  1.00  0.00     0.169 A 
ATOM      6  C   UNL     1      19.577  32.908 -11.846  1.00  0.00     0.152 A 
ATOM      7  N   UNL     1      18.368  32.260 -11.805  1.00  0.00    -0.207 NA
ATOM      8  C   UNL     1      18.136  32.035 -10.532  1.00  0.00     0.207 A 
ATOM      9  N   UNL     1      19.120  32.583  -9.729  1.00  0.00    -0.265 N 
ATOM     10  H   UNL     1      33.122  41.706 -45.044  1.00  0.00     0.106 H 
ENDROOT
BRANCH   1  11
ATOM     11  N   UNL     1      19.987  33.243 -14.243  1.00  0.00    -0.382 N 
ATOM     12  H   UNL     1      -0.168  50.164 -36.612  1.00  0.00     0.158 HD
ATOM     13  H   UNL     1      -0.168  50.164 -36.612  1.00  0.00     0.158 HD
ENDBRANCH   1  11
BRANCH   9  14
ATOM     14  C   UNL     1      19.221  32.501  -8.277  1.00  0.00     0.167 C 
ATOM     15  O   UNL     1      19.708  33.765  -7.749  1.00  0.00    -0.347 OA
ATOM     16  C   UNL     1      20.195  31.437  -7.742  1.00  0.00     0.128 C 
ATOM     17  H   UNL     1      17.781  16.701 -45.400  1.00  0.00     0.088 H 
ATOM     18  C   UNL     1      20.605  33.500  -6.644  1.00  0.00     0.112 C 
ATOM     19  C   UNL     1      20.533  32.000  -6.375  1.00  0.00     0.113 C 
ATOM     20  H   UNL     1      17.781  16.701 -45.400  1.00  0.00     0.068 H 
ATOM     21  H   UNL     1      17.781  16.701 -45.400  1.00  0.00     0.066 H 
ATOM     22  H   UNL     1      17.781  16.701 -45.400  1.00  0.00     0.066 H 
BRANCH  16  23
ATOM     23  O   UNL     1      19.638  30.130  -7.594  1.00  0.00    -0.386 OA
ATOM     24  H   UNL     1     -17.102  34.076 -23.334  1.00  0.00     0.211 HD
ENDBRANCH  16  23
BRANCH  18  25
ATOM     25  C   UNL     1      22.008  33.980  -7.038  1.00  0.00     0.072 C 
ATOM     26  H   UNL     1      15.447  22.138 -47.098  1.00  0.00     0.059 H 
ATOM     27  H   UNL     1      15.447  22.138 -47.098  1.00  0.00     0.059 H 
BRANCH  25  28
ATOM     28  O   UNL     1      22.969  33.686  -6.032  1.00  0.00    -0.394 OA
ATOM     29  H   UNL     1      22.335  53.668 -44.459  1.00  0.00     0.210 HD
ENDBRANCH  25  28
ENDBRANCH  18  25
BRANCH  19  30
ATOM     30  O   UNL     1      19.452  31.708  -5.476  1.00  0.00    -0.387 OA
ATOM     31  H   UNL     1      13.016  59.529 -37.201  1.00  0.00     0.211 HD
ENDBRANCH  19  30
ENDBRANCH   9  14
BRANCH   8  32
ATOM     32  N   UNL     1      17.098  31.351 -10.011  1.00  0.00    -0.351 N 
ATOM     33  H   UNL     1      44.473  29.132 -38.942  1.00  0.00     0.163 HD
BRANCH  32  34
ATOM     34  C   UNL     1      16.485  30.297 -10.794  1.00  0.00     0.043 C 
ATOM     35  H   UNL     1      -9.795  53.559 -29.375  1.00  0.00     0.054 H 
ATOM     36  H   UNL     1      -9.795  53.559 -29.375  1.00  0.00     0.054 H 
BRANCH  34  37
ATOM     37  C   UNL     1      17.367  29.071 -10.765  1.00  0.00    -0.029 A 
ATOM     38  C   UNL     1      17.473  28.303  -9.598  1.00  0.00    -0.057 A 
ATOM     39  C   UNL     1      18.088  28.675 -11.900  1.00  0.00    -0.057 A 
ATOM     40  C   UNL     1      18.287  27.167  -9.565  1.00  0.00    -0.054 A 
ATOM     41  H   UNL     1      10.306  68.650  -2.558  1.00  0.00     0.063 H 
ATOM     42  C   UNL     1      18.902  27.537 -11.861  1.00  0.00    -0.054 A 
ATOM     43  H   UNL     1      10.306  68.650  -2.558  1.00  0.00     0.063 H 
ATOM     44  C   UNL     1      19.018  26.766 -10.695  1.00  0.00    -0.018 A 
ATOM     45  H   UNL     1      10.306  68.650  -2.558  1.00  0.00     0.063 H 
ATOM     46  H   UNL     1      10.306  68.650  -2.558  1.00  0.00     0.063 H 
BRANCH  44  47
ATOM     47  C   UNL     1      19.878  25.569 -10.657  1.00  0.00    -0.018 A 
ATOM     48  C   UNL     1      20.350  24.980 -11.843  1.00  0.00    -0.054 A 
ATOM     49  C   UNL     1      20.251  24.984  -9.434  1.00  0.00    -0.054 A 
ATOM     50  C   UNL     1      21.165  23.845 -11.807  1.00  0.00    -0.062 A 
ATOM     51  H   UNL     1      -9.860  53.306 -29.618  1.00  0.00     0.063 H 
ATOM     52  C   UNL     1      21.066  23.849  -9.397  1.00  0.00    -0.062 A 
ATOM     53  H   UNL     1      -9.860  53.306 -29.618  1.00  0.00     0.063 H 
ATOM     54  C   UNL     1      21.522  23.279 -10.585  1.00  0.00    -0.062 A 
ATOM     55  H   UNL     1      -9.860  53.306 -29.618  1.00  0.00     0.062 H 
ATOM     56  H   UNL     1      -9.860  53.306 -29.618  1.00  0.00     0.062 H 
ATOM     57  H   UNL     1      -9.860  53.306 -29.618  1.00  0.00     0.062 H 
ENDBRANCH  44  47
ENDBRANCH  34  37
ENDBRANCH  32  34
ENDBRANCH   8  32
TORSDOF 10
ENDMDL
MODEL 5
REMARK VINA RESULT:    -6.851      3.596      9.011
REMARK INTER + INTRA:         -11.672
REMARK INTER:                 -10.565
REMARK INTRA:                  -1.107
REMARK UNBOUND:                -1.617
REMARK SMILES Nc1ncnc2c1nc(NCc1ccc(-c3ccccc3)cc1)n2[C@@H]1O[C@H](CO)[C@@H](O)[C@H]1O
REMARK SMILES IDX 2 1 3 2 4 3 5 4 6 5 7 6 8 7 9 8 24 9 1 11 25 14 26 15 32 16
REMARK SMILES IDX 27 18 30 19 33 23 28 25 29 28 31 30 10 32 11 34 12 37 13 38
REMARK SMILES IDX 23 39 14 40 22 42 15 44 16 47 17 48 21 49 18 50 20 52 19 54
REMARK H PARENT 4 10 1 12 1 13 25 17 32 20 27 21 30 22 33 24 28 26 28 27 29 29
REMARK H PARENT 31 31 10 33 11 35 11 36 13 41 23 43 14 45 22 46 17 51 21 53
REMARK H PARENT 18 55 20 56 19 57
REMARK Flexibility Score: inf
ROOT
ATOM      1  C   UNL     1      18.387  27.147  -9.318  1.00  0.00     0.155 A 
ATOM      2  N   UNL     1      18.908  26.060  -9.929  1.00  0.00    -0.217 NA
ATOM      3  C   UNL     1      19.381  26.195 -11.183  1.00  0.00     0.120 A 
ATOM      4  N   UNL     1      19.386  27.298 -11.963  1.00  0.00    -0.216 NA
ATOM      5  C   UNL     1      18.833  28.345 -11.322  1.00  0.00     0.169 A 
ATOM      6  C   UNL     1      18.331  28.354 -10.033  1.00  0.00     0.152 A 
ATOM      7  N   UNL     1      17.855  29.599  -9.702  1.00  0.00    -0.207 NA
ATOM      8  C   UNL     1      18.092  30.353 -10.751  1.00  0.00     0.207 A 
ATOM      9  N   UNL     1      18.640  29.623 -11.791  1.00  0.00    -0.265 N 
ATOM     10  H   UNL     1      15.849   1.787  15.482  1.00  0.00     0.106 H 
ENDROOT
BRANCH   1  11
ATOM     11  N   UNL     1      17.921  27.012  -8.019  1.00  0.00    -0.382 N 
ATOM     12  H   UNL     1     -12.037  31.472   8.580  1.00  0.00     0.158 HD
ATOM     13  H   UNL     1     -12.037  31.472   8.580  1.00  0.00     0.158 HD
ENDBRANCH   1  11
BRANCH   9  14
ATOM     14  C   UNL     1      19.070  30.126 -13.090  1.00  0.00     0.167 C 
ATOM     15  O   UNL     1      18.388  29.395 -14.145  1.00  0.00    -0.347 OA
ATOM     16  C   UNL     1      20.570  29.970 -13.394  1.00  0.00     0.128 C 
ATOM     17  H   UNL     1      23.499  23.839  26.542  1.00  0.00     0.088 H 
ATOM     18  C   UNL     1      19.308  29.185 -15.244  1.00  0.00     0.112 C 
ATOM     19  C   UNL     1      20.570  29.975 -14.911  1.00  0.00     0.113 C 
ATOM     20  H   UNL     1      23.499  23.839  26.542  1.00  0.00     0.068 H 
ATOM     21  H   UNL     1      23.499  23.839  26.542  1.00  0.00     0.066 H 
ATOM     22  H   UNL     1      23.499  23.839  26.542  1.00  0.00     0.066 H 
BRANCH  16  23
ATOM     23  O   UNL     1      21.395  31.034 -12.916  1.00  0.00    -0.386 OA
ATOM     24  H   UNL     1      32.011  18.492  23.733  1.00  0.00     0.211 HD
ENDBRANCH  16  23
BRANCH  18  25
ATOM     25  C   UNL     1      19.554  27.677 -15.384  1.00  0.00     0.072 C 
ATOM     26  H   UNL     1      46.144  34.447 -47.559  1.00  0.00     0.059 H 
ATOM     27  H   UNL     1      46.144  34.447 -47.559  1.00  0.00     0.059 H 
BRANCH  25  28
ATOM     28  O   UNL     1      18.364  26.926 -15.186  1.00  0.00    -0.394 OA
ATOM     29  H   UNL     1      45.221  35.796 -47.994  1.00  0.00     0.210 HD
ENDBRANCH  25  28
ENDBRANCH  18  25
BRANCH  19  30
ATOM     30  O   UNL     1      20.443  31.330 -15.368  1.00  0.00    -0.387 OA
ATOM     31  H   UNL     1      17.628  -0.425 -43.752  1.00  0.00     0.211 HD
ENDBRANCH  19  30
ENDBRANCH   9  14
BRANCH   8  32
ATOM     32  N   UNL     1      17.867  31.677 -10.859  1.00  0.00    -0.351 N 
ATOM     33  H   UNL     1      41.582   5.530   7.721  1.00  0.00     0.163 HD
BRANCH  32  34
ATOM     34  C   UNL     1      18.402  32.567  -9.847  1.00  0.00     0.043 C 
ATOM     35  H   UNL     1      33.745   4.066  13.158  1.00  0.00     0.054 H 
ATOM     36  H   UNL     1      33.745   4.066  13.158  1.00  0.00     0.054 H 
BRANCH  34  37
ATOM     37  C   UNL     1      18.421  33.981 -10.379  1.00  0.00    -0.029 A 
ATOM     38  C   UNL     1      19.341  34.912  -9.880  1.00  0.00    -0.057 A 
ATOM     39  C   UNL     1      17.529  34.386 -11.380  1.00  0.00    -0.057 A 
ATOM     40  C   UNL     1      19.365  36.222 -10.368  1.00  0.00    -0.054 A 
ATOM     41  H   UNL     1       7.800   6.193  17.884  1.00  0.00     0.063 H 
ATOM     42  C   UNL     1      17.556  35.698 -11.865  1.00  0.00    -0.054 A 
ATOM     43  H   UNL     1       7.800   6.193  17.884  1.00  0.00     0.063 H 
ATOM     44  C   UNL     1      18.470  36.639 -11.367  1.00  0.00    -0.018 A 
ATOM     45  H   UNL     1       7.800   6.193  17.884  1.00  0.00     0.063 H 
ATOM     46  H   UNL     1       7.800   6.193  17.884  1.00  0.00     0.063 H 
BRANCH  44  47
ATOM     47  C   UNL     1      18.495  38.021 -11.879  1.00  0.00    -0.018 A 
ATOM     48  C   UNL     1      17.559  38.972 -11.436  1.00  0.00    -0.054 A 
ATOM     49  C   UNL     1      19.455  38.427 -12.822  1.00  0.00    -0.054 A 
ATOM     50  C   UNL     1      17.582  40.283 -11.922  1.00  0.00    -0.062 A 
ATOM     51  H   UNL     1      -1.339   1.934   5.940  1.00  0.00     0.063 H 
ATOM     52  C   UNL     1      19.479  39.737 -13.308  1.00  0.00    -0.062 A 
ATOM     53  H   UNL     1      -1.339   1.934   5.940  1.00  0.00     0.063 H 
ATOM     54  C   UNL     1      18.541  40.665 -12.858  1.00  0.00    -0.062 A 
ATOM     55  H   UNL     1      -1.339   1.934   5.940  1.00  0.00     0.062 H 
ATOM     56  H   UNL     1      -1.339   1.934   5.940  1.00  0.00     0.062 H 
ATOM     57  H   UNL     1      -1.339   1.934   5.940  1.00  0.00     0.062 H 
ENDBRANCH  44  47
ENDBRANCH  34  37
ENDBRANCH  32  34
ENDBRANCH   8  32
TORSDOF 10
ENDMDL
