MODEL 1
REMARK VINA RESULT:    -7.497      0.000      0.000
REMARK INTER + INTRA:         -15.448
REMARK INTER:                 -12.538
REMARK INTRA:                  -2.910
REMARK UNBOUND:                -2.910
REMARK SMILES CC(C)(C)c1ccc(N(C(=O)c2ccncc2)[C@@H](C(=O)NCCc2cccc(F)c2)c2cccnc2)cc1
REMARK SMILES IDX 18 1 9 3 8 4 5 5 6 6 38 7 7 8 37 10 2 14 1 15 3 19 4 23
REMARK SMILES IDX 10 27 11 28 12 29 13 30 17 31 14 32 16 34 15 36 19 39 20 40
REMARK SMILES IDX 21 41 22 43 23 46 24 49 25 50 30 51 26 52 28 54 27 56 29 58
REMARK SMILES IDX 31 60 32 61 36 62 33 63 35 65 34 67
REMARK H PARENT 18 2 6 9 38 11 7 12 37 13 1 16 1 17 1 18 3 20 3 21 3 22 4 24
REMARK H PARENT 4 25 4 26 13 33 17 35 14 37 16 38 21 42 22 44 22 45 23 47
REMARK H PARENT 23 48 25 53 30 55 26 57 27 59 32 64 36 66 33 68 34 69
REMARK Flexibility Score: inf
ROOT
ATOM      1  C   UNL     1      18.352  33.262 -10.447  1.00  0.00     0.142 C 
ATOM      2  H   UNL     1      23.889  43.367  27.315  1.00  0.00     0.069 H 
ENDROOT
BRANCH   1   3
ATOM      3  N   UNL     1      19.257  33.814 -11.494  1.00  0.00    -0.292 N 
BRANCH   3   4
ATOM      4  C   UNL     1      19.139  35.217 -11.750  1.00  0.00     0.045 A 
ATOM      5  C   UNL     1      18.931  38.001 -12.328  1.00  0.00    -0.042 A 
ATOM      6  C   UNL     1      20.163  37.328 -12.402  1.00  0.00    -0.056 A 
ATOM      7  C   UNL     1      17.812  37.245 -11.943  1.00  0.00    -0.056 A 
ATOM      8  C   UNL     1      20.265  35.959 -12.123  1.00  0.00    -0.038 A 
ATOM      9  H   UNL     1       9.841  37.131 -50.470  1.00  0.00     0.063 H 
ATOM     10  C   UNL     1      17.912  35.875 -11.660  1.00  0.00    -0.038 A 
ATOM     11  H   UNL     1       9.841  37.131 -50.470  1.00  0.00     0.063 H 
ATOM     12  H   UNL     1       9.841  37.131 -50.470  1.00  0.00     0.064 H 
ATOM     13  H   UNL     1       9.841  37.131 -50.470  1.00  0.00     0.064 H 
BRANCH   5  14
ATOM     14  C   UNL     1      18.850  39.504 -12.655  1.00  0.00    -0.013 C 
BRANCH  14  15
ATOM     15  C   UNL     1      20.029  40.241 -11.987  1.00  0.00    -0.056 C 
ATOM     16  H   UNL     1      -6.979  10.931  -6.895  1.00  0.00     0.024 H 
ATOM     17  H   UNL     1      -6.979  10.931  -6.895  1.00  0.00     0.024 H 
ATOM     18  H   UNL     1      -6.979  10.931  -6.895  1.00  0.00     0.024 H 
ENDBRANCH  14  15
BRANCH  14  19
ATOM     19  C   UNL     1      17.547  40.181 -12.174  1.00  0.00    -0.056 C 
ATOM     20  H   UNL     1      12.734  63.149 -42.991  1.00  0.00     0.024 H 
ATOM     21  H   UNL     1      12.734  63.149 -42.991  1.00  0.00     0.024 H 
ATOM     22  H   UNL     1      12.734  63.149 -42.991  1.00  0.00     0.024 H 
ENDBRANCH  14  19
BRANCH  14  23
ATOM     23  C   UNL     1      18.930  39.712 -14.186  1.00  0.00    -0.056 C 
ATOM     24  H   UNL     1      38.242  29.122 -44.794  1.00  0.00     0.024 H 
ATOM     25  H   UNL     1      38.242  29.122 -44.794  1.00  0.00     0.024 H 
ATOM     26  H   UNL     1      38.242  29.122 -44.794  1.00  0.00     0.024 H 
ENDBRANCH  14  23
ENDBRANCH   5  14
ENDBRANCH   3   4
BRANCH   3  27
ATOM     27  C   UNL     1      20.271  32.999 -12.012  1.00  0.00     0.259 C 
ATOM     28  O   UNL     1      21.337  32.797 -11.426  1.00  0.00    -0.269 OA
BRANCH  27  29
ATOM     29  C   UNL     1      20.075  32.251 -13.279  1.00  0.00     0.043 A 
ATOM     30  C   UNL     1      19.753  32.897 -14.470  1.00  0.00    -0.031 A 
ATOM     31  C   UNL     1      20.126  30.857 -13.239  1.00  0.00    -0.031 A 
ATOM     32  C   UNL     1      19.516  32.113 -15.588  1.00  0.00     0.028 A 
ATOM     33  H   UNL     1      54.927  43.428   7.582  1.00  0.00     0.065 H 
ATOM     34  C   UNL     1      19.879  30.164 -14.410  1.00  0.00     0.028 A 
ATOM     35  H   UNL     1      54.927  43.428   7.582  1.00  0.00     0.065 H 
ATOM     36  N   UNL     1      19.585  30.764 -15.584  1.00  0.00    -0.265 NA
ATOM     37  H   UNL     1      54.927  43.428   7.582  1.00  0.00     0.084 H 
ATOM     38  H   UNL     1      54.927  43.428   7.582  1.00  0.00     0.084 H 
ENDBRANCH  27  29
ENDBRANCH   3  27
ENDBRANCH   1   3
BRANCH   1  39
ATOM     39  C   UNL     1      17.179  32.479 -11.098  1.00  0.00     0.247 C 
ATOM     40  O   UNL     1      16.960  32.546 -12.303  1.00  0.00    -0.272 OA
ATOM     41  N   UNL     1      16.431  31.707 -10.230  1.00  0.00    -0.354 N 
ATOM     42  H   UNL     1      21.137  71.689  -1.823  1.00  0.00     0.163 HD
BRANCH  41  43
ATOM     43  C   UNL     1      15.302  30.904 -10.653  1.00  0.00     0.021 C 
ATOM     44  H   UNL     1      28.149  70.354 -18.009  1.00  0.00     0.049 H 
ATOM     45  H   UNL     1      28.149  70.354 -18.009  1.00  0.00     0.049 H 
BRANCH  43  46
ATOM     46  C   UNL     1      15.318  29.490 -10.062  1.00  0.00    -0.010 C 
ATOM     47  H   UNL     1      25.353  71.595 -14.968  1.00  0.00     0.033 H 
ATOM     48  H   UNL     1      25.353  71.595 -14.968  1.00  0.00     0.033 H 
BRANCH  46  49
ATOM     49  C   UNL     1      16.572  28.699 -10.346  1.00  0.00    -0.043 A 
ATOM     50  C   UNL     1      17.137  28.688 -11.631  1.00  0.00    -0.059 A 
ATOM     51  C   UNL     1      17.181  27.948  -9.335  1.00  0.00    -0.023 A 
ATOM     52  C   UNL     1      18.297  27.954 -11.893  1.00  0.00    -0.059 A 
ATOM     53  H   UNL     1      27.686  70.260  -0.981  1.00  0.00     0.063 H 
ATOM     54  C   UNL     1      18.335  27.220  -9.607  1.00  0.00     0.123 A 
ATOM     55  H   UNL     1      27.686  70.260  -0.981  1.00  0.00     0.066 H 
ATOM     56  C   UNL     1      18.900  27.219 -10.876  1.00  0.00    -0.026 A 
ATOM     57  H   UNL     1      27.686  70.260  -0.981  1.00  0.00     0.062 H 
ATOM     58  F   UNL     1      18.923  26.517  -8.629  1.00  0.00    -0.207 F 
ATOM     59  H   UNL     1      27.686  70.260  -0.981  1.00  0.00     0.065 H 
ENDBRANCH  46  49
ENDBRANCH  43  46
ENDBRANCH  41  43
ENDBRANCH   1  39
BRANCH   1  60
ATOM     60  C   UNL     1      19.010  32.535  -9.275  1.00  0.00     0.003 A 
ATOM     61  C   UNL     1      19.258  31.158  -9.229  1.00  0.00    -0.053 A 
ATOM     62  C   UNL     1      19.477  33.288  -8.194  1.00  0.00     0.033 A 
ATOM     63  C   UNL     1      19.900  30.601  -8.123  1.00  0.00    -0.043 A 
ATOM     64  H   UNL     1      55.949  30.393   1.259  1.00  0.00     0.063 H 
ATOM     65  N   UNL     1      20.120  32.779  -7.118  1.00  0.00    -0.264 NA
ATOM     66  H   UNL     1      55.949  30.393   1.259  1.00  0.00     0.084 H 
ATOM     67  C   UNL     1      20.310  31.447  -7.106  1.00  0.00     0.027 A 
ATOM     68  H   UNL     1      55.949  30.393   1.259  1.00  0.00     0.064 H 
ATOM     69  H   UNL     1      55.949  30.393   1.259  1.00  0.00     0.084 H 
ENDBRANCH   1  60
TORSDOF 13
ENDMDL
MODEL 2
REMARK VINA RESULT:    -7.477      0.801      1.117
REMARK INTER + INTRA:         -15.414
REMARK INTER:                 -12.668
REMARK INTRA:                  -2.746
REMARK UNBOUND:                -2.910
REMARK SMILES CC(C)(C)c1ccc(N(C(=O)c2ccncc2)[C@@H](C(=O)NCCc2cccc(F)c2)c2cccnc2)cc1
REMARK SMILES IDX 18 1 9 3 8 4 5 5 6 6 38 7 7 8 37 10 2 14 1 15 3 19 4 23
REMARK SMILES IDX 10 27 11 28 12 29 13 30 17 31 14 32 16 34 15 36 19 39 20 40
REMARK SMILES IDX 21 41 22 43 23 46 24 49 25 50 30 51 26 52 28 54 27 56 29 58
REMARK SMILES IDX 31 60 32 61 36 62 33 63 35 65 34 67
REMARK H PARENT 18 2 6 9 38 11 7 12 37 13 1 16 1 17 1 18 3 20 3 21 3 22 4 24
REMARK H PARENT 4 25 4 26 13 33 17 35 14 37 16 38 21 42 22 44 22 45 23 47
REMARK H PARENT 23 48 25 53 30 55 26 57 27 59 32 64 36 66 33 68 34 69
REMARK Flexibility Score: inf
ROOT
ATOM      1  C   UNL     1      18.240  33.357 -10.528  1.00  0.00     0.142 C 
ATOM      2  H   UNL     1      25.729  44.007  26.745  1.00  0.00     0.069 H 
ENDROOT
BRANCH   1   3
ATOM      3  N   UNL     1      19.118  33.856 -11.623  1.00  0.00    -0.292 N 
BRANCH   3   4
ATOM      4  C   UNL     1      19.088  35.267 -11.860  1.00  0.00     0.045 A 
ATOM      5  C   UNL     1      19.047  38.066 -12.400  1.00  0.00    -0.042 A 
ATOM      6  C   UNL     1      20.215  37.303 -12.575  1.00  0.00    -0.056 A 
ATOM      7  C   UNL     1      17.907  37.391 -11.935  1.00  0.00    -0.056 A 
ATOM      8  C   UNL     1      20.234  35.927 -12.314  1.00  0.00    -0.038 A 
ATOM      9  H   UNL     1       7.020  38.364 -49.730  1.00  0.00     0.063 H 
ATOM     10  C   UNL     1      17.925  36.014 -11.670  1.00  0.00    -0.038 A 
ATOM     11  H   UNL     1       7.020  38.364 -49.730  1.00  0.00     0.063 H 
ATOM     12  H   UNL     1       7.020  38.364 -49.730  1.00  0.00     0.064 H 
ATOM     13  H   UNL     1       7.020  38.364 -49.730  1.00  0.00     0.064 H 
BRANCH   5  14
ATOM     14  C   UNL     1      19.055  39.574 -12.710  1.00  0.00    -0.013 C 
BRANCH  14  15
ATOM     15  C   UNL     1      20.277  40.233 -12.035  1.00  0.00    -0.056 C 
ATOM     16  H   UNL     1     -13.274  19.261  -5.033  1.00  0.00     0.024 H 
ATOM     17  H   UNL     1     -13.274  19.261  -5.033  1.00  0.00     0.024 H 
ATOM     18  H   UNL     1     -13.274  19.261  -5.033  1.00  0.00     0.024 H 
ENDBRANCH  14  15
BRANCH  14  19
ATOM     19  C   UNL     1      17.796  40.322 -12.220  1.00  0.00    -0.056 C 
ATOM     20  H   UNL     1      19.666  69.505 -37.621  1.00  0.00     0.024 H 
ATOM     21  H   UNL     1      19.666  69.505 -37.621  1.00  0.00     0.024 H 
ATOM     22  H   UNL     1      19.666  69.505 -37.621  1.00  0.00     0.024 H 
ENDBRANCH  14  19
BRANCH  14  23
ATOM     23  C   UNL     1      19.147  39.796 -14.239  1.00  0.00    -0.056 C 
ATOM     24  H   UNL     1      12.057  65.170 -41.217  1.00  0.00     0.024 H 
ATOM     25  H   UNL     1      12.057  65.170 -41.217  1.00  0.00     0.024 H 
ATOM     26  H   UNL     1      12.057  65.170 -41.217  1.00  0.00     0.024 H 
ENDBRANCH  14  23
ENDBRANCH   5  14
ENDBRANCH   3   4
BRANCH   3  27
ATOM     27  C   UNL     1      20.037  32.977 -12.209  1.00  0.00     0.259 C 
ATOM     28  O   UNL     1      21.099  32.656 -11.670  1.00  0.00    -0.269 OA
BRANCH  27  29
ATOM     29  C   UNL     1      19.733  32.302 -13.496  1.00  0.00     0.043 A 
ATOM     30  C   UNL     1      19.833  32.968 -14.715  1.00  0.00    -0.031 A 
ATOM     31  C   UNL     1      19.246  30.995 -13.459  1.00  0.00    -0.031 A 
ATOM     32  C   UNL     1      19.459  32.283 -15.860  1.00  0.00     0.028 A 
ATOM     33  H   UNL     1      53.291  30.427  11.903  1.00  0.00     0.065 H 
ATOM     34  C   UNL     1      18.903  30.396 -14.657  1.00  0.00     0.028 A 
ATOM     35  H   UNL     1      53.291  30.427  11.903  1.00  0.00     0.065 H 
ATOM     36  N   UNL     1      19.010  31.010 -15.856  1.00  0.00    -0.265 NA
ATOM     37  H   UNL     1      53.291  30.427  11.903  1.00  0.00     0.084 H 
ATOM     38  H   UNL     1      53.291  30.427  11.903  1.00  0.00     0.084 H 
ENDBRANCH  27  29
ENDBRANCH   3  27
ENDBRANCH   1   3
BRANCH   1  39
ATOM     39  C   UNL     1      17.013  32.604 -11.111  1.00  0.00     0.247 C 
ATOM     40  O   UNL     1      16.561  32.886 -12.216  1.00  0.00    -0.272 OA
ATOM     41  N   UNL     1      16.499  31.604 -10.311  1.00  0.00    -0.354 N 
ATOM     42  H   UNL     1      20.255  69.396   5.470  1.00  0.00     0.163 HD
BRANCH  41  43
ATOM     43  C   UNL     1      15.361  30.790 -10.688  1.00  0.00     0.021 C 
ATOM     44  H   UNL     1      28.606  69.637 -20.226  1.00  0.00     0.049 H 
ATOM     45  H   UNL     1      28.606  69.637 -20.226  1.00  0.00     0.049 H 
BRANCH  43  46
ATOM     46  C   UNL     1      15.363  29.411 -10.019  1.00  0.00    -0.010 C 
ATOM     47  H   UNL     1      25.749  71.103 -17.196  1.00  0.00     0.033 H 
ATOM     48  H   UNL     1      25.749  71.103 -17.196  1.00  0.00     0.033 H 
BRANCH  46  49
ATOM     49  C   UNL     1      16.612  28.597 -10.252  1.00  0.00    -0.043 A 
ATOM     50  C   UNL     1      17.261  27.956  -9.184  1.00  0.00    -0.059 A 
ATOM     51  C   UNL     1      17.155  28.483 -11.537  1.00  0.00    -0.023 A 
ATOM     52  C   UNL     1      18.419  27.205  -9.402  1.00  0.00    -0.059 A 
ATOM     53  H   UNL     1     -18.288   1.764 -10.944  1.00  0.00     0.063 H 
ATOM     54  C   UNL     1      18.308  27.733 -11.742  1.00  0.00     0.123 A 
ATOM     55  H   UNL     1     -18.288   1.764 -10.944  1.00  0.00     0.066 H 
ATOM     56  C   UNL     1      18.943  27.091 -10.687  1.00  0.00    -0.026 A 
ATOM     57  H   UNL     1     -18.288   1.764 -10.944  1.00  0.00     0.062 H 
ATOM     58  F   UNL     1      18.812  27.614 -12.979  1.00  0.00    -0.207 F 
ATOM     59  H   UNL     1     -18.288   1.764 -10.944  1.00  0.00     0.065 H 
ENDBRANCH  46  49
ENDBRANCH  43  46
ENDBRANCH  41  43
ENDBRANCH   1  39
BRANCH   1  60
ATOM     60  C   UNL     1      18.922  32.631  -9.369  1.00  0.00     0.003 A 
ATOM     61  C   UNL     1      19.176  31.255  -9.330  1.00  0.00    -0.053 A 
ATOM     62  C   UNL     1      19.405  33.384  -8.295  1.00  0.00     0.033 A 
ATOM     63  C   UNL     1      19.840  30.699  -8.237  1.00  0.00    -0.043 A 
ATOM     64  H   UNL     1      56.051  30.620   0.500  1.00  0.00     0.063 H 
ATOM     65  N   UNL     1      20.069  32.875  -7.231  1.00  0.00    -0.264 NA
ATOM     66  H   UNL     1      56.051  30.620   0.500  1.00  0.00     0.084 H 
ATOM     67  C   UNL     1      20.264  31.544  -7.225  1.00  0.00     0.027 A 
ATOM     68  H   UNL     1      56.051  30.620   0.500  1.00  0.00     0.064 H 
ATOM     69  H   UNL     1      56.051  30.620   0.500  1.00  0.00     0.084 H 
ENDBRANCH   1  60
TORSDOF 13
ENDMDL
MODEL 3
REMARK VINA RESULT:    -7.313      1.793      3.080
REMARK INTER + INTRA:         -15.140
REMARK INTER:                 -12.398
REMARK INTRA:                  -2.742
REMARK UNBOUND:                -2.910
REMARK SMILES CC(C)(C)c1ccc(N(C(=O)c2ccncc2)[C@@H](C(=O)NCCc2cccc(F)c2)c2cccnc2)cc1
REMARK SMILES IDX 18 1 9 3 8 4 5 5 6 6 38 7 7 8 37 10 2 14 1 15 3 19 4 23
REMARK SMILES IDX 10 27 11 28 12 29 13 30 17 31 14 32 16 34 15 36 19 39 20 40
REMARK SMILES IDX 21 41 22 43 23 46 24 49 25 50 30 51 26 52 28 54 27 56 29 58
REMARK SMILES IDX 31 60 32 61 36 62 33 63 35 65 34 67
REMARK H PARENT 18 2 6 9 38 11 7 12 37 13 1 16 1 17 1 18 3 20 3 21 3 22 4 24
REMARK H PARENT 4 25 4 26 13 33 17 35 14 37 16 38 21 42 22 44 22 45 23 47
REMARK H PARENT 23 48 25 53 30 55 26 57 27 59 32 64 36 66 33 68 34 69
REMARK Flexibility Score: inf
ROOT
ATOM      1  C   UNL     1      18.785  33.322  -9.985  1.00  0.00     0.142 C 
ATOM      2  H   UNL     1      14.152  42.558  28.120  1.00  0.00     0.069 H 
ENDROOT
BRANCH   1   3
ATOM      3  N   UNL     1      19.895  33.944 -10.760  1.00  0.00    -0.292 N 
BRANCH   3   4
ATOM      4  C   UNL     1      19.660  35.273 -11.238  1.00  0.00     0.045 A 
ATOM      5  C   UNL     1      19.199  37.943 -12.123  1.00  0.00    -0.042 A 
ATOM      6  C   UNL     1      18.357  37.328 -11.179  1.00  0.00    -0.056 A 
ATOM      7  C   UNL     1      20.267  37.179 -12.620  1.00  0.00    -0.056 A 
ATOM      8  C   UNL     1      18.586  36.018 -10.741  1.00  0.00    -0.038 A 
ATOM      9  H   UNL     1      41.679  58.154  12.865  1.00  0.00     0.063 H 
ATOM     10  C   UNL     1      20.496  35.866 -12.184  1.00  0.00    -0.038 A 
ATOM     11  H   UNL     1      41.679  58.154  12.865  1.00  0.00     0.063 H 
ATOM     12  H   UNL     1      41.679  58.154  12.865  1.00  0.00     0.064 H 
ATOM     13  H   UNL     1      41.679  58.154  12.865  1.00  0.00     0.064 H 
BRANCH   5  14
ATOM     14  C   UNL     1      18.929  39.391 -12.573  1.00  0.00    -0.013 C 
BRANCH  14  15
ATOM     15  C   UNL     1      17.591  39.875 -11.975  1.00  0.00    -0.056 C 
ATOM     16  H   UNL     1      48.776  15.252  -5.997  1.00  0.00     0.024 H 
ATOM     17  H   UNL     1      48.776  15.252  -5.997  1.00  0.00     0.024 H 
ATOM     18  H   UNL     1      48.776  15.252  -5.997  1.00  0.00     0.024 H 
ENDBRANCH  14  15
BRANCH  14  19
ATOM     19  C   UNL     1      18.841  39.565 -14.106  1.00  0.00    -0.056 C 
ATOM     20  H   UNL     1     -19.822  39.640 -16.452  1.00  0.00     0.024 H 
ATOM     21  H   UNL     1     -19.822  39.640 -16.452  1.00  0.00     0.024 H 
ATOM     22  H   UNL     1     -19.822  39.640 -16.452  1.00  0.00     0.024 H 
ENDBRANCH  14  19
BRANCH  14  23
ATOM     23  C   UNL     1      20.065  40.316 -12.076  1.00  0.00    -0.056 C 
ATOM     24  H   UNL     1      30.400  61.914  17.055  1.00  0.00     0.024 H 
ATOM     25  H   UNL     1      30.400  61.914  17.055  1.00  0.00     0.024 H 
ATOM     26  H   UNL     1      30.400  61.914  17.055  1.00  0.00     0.024 H 
ENDBRANCH  14  23
ENDBRANCH   5  14
ENDBRANCH   3   4
BRANCH   3  27
ATOM     27  C   UNL     1      21.135  33.295 -10.810  1.00  0.00     0.259 C 
ATOM     28  O   UNL     1      21.392  32.397 -11.615  1.00  0.00    -0.269 OA
BRANCH  27  29
ATOM     29  C   UNL     1      22.257  33.725  -9.938  1.00  0.00     0.043 A 
ATOM     30  C   UNL     1      22.111  34.753  -9.009  1.00  0.00    -0.031 A 
ATOM     31  C   UNL     1      23.507  33.139 -10.131  1.00  0.00    -0.031 A 
ATOM     32  C   UNL     1      23.231  35.139  -8.290  1.00  0.00     0.028 A 
ATOM     33  H   UNL     1      -3.454   0.400  -8.156  1.00  0.00     0.065 H 
ATOM     34  C   UNL     1      24.562  33.590  -9.360  1.00  0.00     0.028 A 
ATOM     35  H   UNL     1      -3.454   0.400  -8.156  1.00  0.00     0.065 H 
ATOM     36  N   UNL     1      24.446  34.570  -8.437  1.00  0.00    -0.265 NA
ATOM     37  H   UNL     1      -3.454   0.400  -8.156  1.00  0.00     0.084 H 
ATOM     38  H   UNL     1      -3.454   0.400  -8.156  1.00  0.00     0.084 H 
ENDBRANCH  27  29
ENDBRANCH   3  27
ENDBRANCH   1   3
BRANCH   1  39
ATOM     39  C   UNL     1      17.854  32.506 -10.923  1.00  0.00     0.247 C 
ATOM     40  O   UNL     1      18.135  32.334 -12.105  1.00  0.00    -0.272 OA
ATOM     41  N   UNL     1      16.721  31.990 -10.327  1.00  0.00    -0.354 N 
ATOM     42  H   UNL     1      23.771  72.399  -7.369  1.00  0.00     0.163 HD
BRANCH  41  43
ATOM     43  C   UNL     1      15.737  31.199 -11.040  1.00  0.00     0.021 C 
ATOM     44  H   UNL     1      31.909  69.824 -15.734  1.00  0.00     0.049 H 
ATOM     45  H   UNL     1      31.909  69.824 -15.734  1.00  0.00     0.049 H 
BRANCH  43  46
ATOM     46  C   UNL     1      15.513  29.818 -10.415  1.00  0.00    -0.010 C 
ATOM     47  H   UNL     1      31.004  70.263 -15.091  1.00  0.00     0.033 H 
ATOM     48  H   UNL     1      31.004  70.263 -15.091  1.00  0.00     0.033 H 
BRANCH  46  49
ATOM     49  C   UNL     1      16.690  28.878 -10.518  1.00  0.00    -0.043 A 
ATOM     50  C   UNL     1      17.376  28.718 -11.732  1.00  0.00    -0.059 A 
ATOM     51  C   UNL     1      17.103  28.135  -9.407  1.00  0.00    -0.023 A 
ATOM     52  C   UNL     1      18.463  27.846 -11.826  1.00  0.00    -0.059 A 
ATOM     53  H   UNL     1      31.527  69.521  -2.359  1.00  0.00     0.063 H 
ATOM     54  C   UNL     1      18.187  27.269  -9.511  1.00  0.00     0.123 A 
ATOM     55  H   UNL     1      31.527  69.521  -2.359  1.00  0.00     0.066 H 
ATOM     56  C   UNL     1      18.872  27.120 -10.710  1.00  0.00    -0.026 A 
ATOM     57  H   UNL     1      31.527  69.521  -2.359  1.00  0.00     0.062 H 
ATOM     58  F   UNL     1      18.588  26.574  -8.437  1.00  0.00    -0.207 F 
ATOM     59  H   UNL     1      31.527  69.521  -2.359  1.00  0.00     0.065 H 
ENDBRANCH  46  49
ENDBRANCH  43  46
ENDBRANCH  41  43
ENDBRANCH   1  39
BRANCH   1  60
ATOM     60  C   UNL     1      19.165  32.591  -8.697  1.00  0.00     0.003 A 
ATOM     61  C   UNL     1      19.607  31.264  -8.634  1.00  0.00    -0.053 A 
ATOM     62  C   UNL     1      19.152  33.300  -7.493  1.00  0.00     0.033 A 
ATOM     63  C   UNL     1      19.963  30.705  -7.407  1.00  0.00    -0.043 A 
ATOM     64  H   UNL     1      50.977  34.727  12.830  1.00  0.00     0.063 H 
ATOM     65  N   UNL     1      19.510  32.791  -6.292  1.00  0.00    -0.264 NA
ATOM     66  H   UNL     1      50.977  34.727  12.830  1.00  0.00     0.084 H 
ATOM     67  C   UNL     1      19.901  31.503  -6.277  1.00  0.00     0.027 A 
ATOM     68  H   UNL     1      50.977  34.727  12.830  1.00  0.00     0.064 H 
ATOM     69  H   UNL     1      50.977  34.727  12.830  1.00  0.00     0.084 H 
ENDBRANCH   1  60
TORSDOF 13
ENDMDL
MODEL 4
REMARK VINA RESULT:    -7.140      1.415      1.949
REMARK INTER + INTRA:         -14.850
REMARK INTER:                 -12.292
REMARK INTRA:                  -2.558
REMARK UNBOUND:                -2.910
REMARK SMILES CC(C)(C)c1ccc(N(C(=O)c2ccncc2)[C@@H](C(=O)NCCc2cccc(F)c2)c2cccnc2)cc1
REMARK SMILES IDX 18 1 9 3 8 4 5 5 6 6 38 7 7 8 37 10 2 14 1 15 3 19 4 23
REMARK SMILES IDX 10 27 11 28 12 29 13 30 17 31 14 32 16 34 15 36 19 39 20 40
REMARK SMILES IDX 21 41 22 43 23 46 24 49 25 50 30 51 26 52 28 54 27 56 29 58
REMARK SMILES IDX 31 60 32 61 36 62 33 63 35 65 34 67
REMARK H PARENT 18 2 6 9 38 11 7 12 37 13 1 16 1 17 1 18 3 20 3 21 3 22 4 24
REMARK H PARENT 4 25 4 26 13 33 17 35 14 37 16 38 21 42 22 44 22 45 23 47
REMARK H PARENT 23 48 25 53 30 55 26 57 27 59 32 64 36 66 33 68 34 69
REMARK Flexibility Score: inf
ROOT
ATOM      1  C   UNL     1      19.040  33.033  -9.487  1.00  0.00     0.142 C 
ATOM      2  H   UNL     1      16.526  57.986  21.006  1.00  0.00     0.069 H 
ENDROOT
BRANCH   1   3
ATOM      3  N   UNL     1      19.638  33.500 -10.768  1.00  0.00    -0.292 N 
BRANCH   3   4
ATOM      4  C   UNL     1      19.408  34.872 -11.107  1.00  0.00     0.045 A 
ATOM      5  C   UNL     1      18.995  37.596 -11.837  1.00  0.00    -0.042 A 
ATOM      6  C   UNL     1      20.269  37.118 -11.484  1.00  0.00    -0.056 A 
ATOM      7  C   UNL     1      17.934  36.677 -11.801  1.00  0.00    -0.056 A 
ATOM      8  C   UNL     1      20.473  35.778 -11.130  1.00  0.00    -0.038 A 
ATOM      9  H   UNL     1      22.964  35.650 -50.807  1.00  0.00     0.063 H 
ATOM     10  C   UNL     1      18.136  35.336 -11.443  1.00  0.00    -0.038 A 
ATOM     11  H   UNL     1      22.964  35.650 -50.807  1.00  0.00     0.063 H 
ATOM     12  H   UNL     1      22.964  35.650 -50.807  1.00  0.00     0.064 H 
ATOM     13  H   UNL     1      22.964  35.650 -50.807  1.00  0.00     0.064 H 
BRANCH   5  14
ATOM     14  C   UNL     1      18.807  39.072 -12.236  1.00  0.00    -0.013 C 
BRANCH  14  15
ATOM     15  C   UNL     1      17.765  39.728 -11.306  1.00  0.00    -0.056 C 
ATOM     16  H   UNL     1      56.759  39.078 -20.977  1.00  0.00     0.024 H 
ATOM     17  H   UNL     1      56.759  39.078 -20.977  1.00  0.00     0.024 H 
ATOM     18  H   UNL     1      56.759  39.078 -20.977  1.00  0.00     0.024 H 
ENDBRANCH  14  15
BRANCH  14  19
ATOM     19  C   UNL     1      18.322  39.271 -13.689  1.00  0.00    -0.056 C 
ATOM     20  H   UNL     1     -18.719  46.690  -5.128  1.00  0.00     0.024 H 
ATOM     21  H   UNL     1     -18.719  46.690  -5.128  1.00  0.00     0.024 H 
ATOM     22  H   UNL     1     -18.719  46.690  -5.128  1.00  0.00     0.024 H 
ENDBRANCH  14  19
BRANCH  14  23
ATOM     23  C   UNL     1      20.149  39.828 -12.098  1.00  0.00    -0.056 C 
ATOM     24  H   UNL     1      41.252  58.954  12.617  1.00  0.00     0.024 H 
ATOM     25  H   UNL     1      41.252  58.954  12.617  1.00  0.00     0.024 H 
ATOM     26  H   UNL     1      41.252  58.954  12.617  1.00  0.00     0.024 H 
ENDBRANCH  14  23
ENDBRANCH   5  14
ENDBRANCH   3   4
BRANCH   3  27
ATOM     27  C   UNL     1      20.525  32.657 -11.450  1.00  0.00     0.259 C 
ATOM     28  O   UNL     1      21.674  32.436 -11.063  1.00  0.00    -0.269 OA
BRANCH  27  29
ATOM     29  C   UNL     1      20.088  31.901 -12.650  1.00  0.00     0.043 A 
ATOM     30  C   UNL     1      18.986  32.297 -13.405  1.00  0.00    -0.031 A 
ATOM     31  C   UNL     1      20.751  30.715 -12.963  1.00  0.00    -0.031 A 
ATOM     32  C   UNL     1      18.604  31.491 -14.466  1.00  0.00     0.028 A 
ATOM     33  H   UNL     1      51.808  58.948  -6.560  1.00  0.00     0.065 H 
ATOM     34  C   UNL     1      20.297  29.982 -14.044  1.00  0.00     0.028 A 
ATOM     35  H   UNL     1      51.808  58.948  -6.560  1.00  0.00     0.065 H 
ATOM     36  N   UNL     1      19.244  30.352 -14.807  1.00  0.00    -0.265 NA
ATOM     37  H   UNL     1      51.808  58.948  -6.560  1.00  0.00     0.084 H 
ATOM     38  H   UNL     1      51.808  58.948  -6.560  1.00  0.00     0.084 H 
ENDBRANCH  27  29
ENDBRANCH   3  27
ENDBRANCH   1   3
BRANCH   1  39
ATOM     39  C   UNL     1      18.430  31.614  -9.654  1.00  0.00     0.247 C 
ATOM     40  O   UNL     1      18.970  30.629  -9.161  1.00  0.00    -0.272 OA
ATOM     41  N   UNL     1      17.251  31.559 -10.370  1.00  0.00    -0.354 N 
ATOM     42  H   UNL     1      49.969  49.362 -27.803  1.00  0.00     0.163 HD
BRANCH  41  43
ATOM     43  C   UNL     1      16.533  30.326 -10.624  1.00  0.00     0.021 C 
ATOM     44  H   UNL     1      10.577  63.525  14.630  1.00  0.00     0.049 H 
ATOM     45  H   UNL     1      10.577  63.525  14.630  1.00  0.00     0.049 H 
BRANCH  43  46
ATOM     46  C   UNL     1      17.220  29.438 -11.668  1.00  0.00    -0.010 C 
ATOM     47  H   UNL     1     -12.281  42.166  17.748  1.00  0.00     0.033 H 
ATOM     48  H   UNL     1     -12.281  42.166  17.748  1.00  0.00     0.033 H 
BRANCH  46  49
ATOM     49  C   UNL     1      17.909  28.218 -11.106  1.00  0.00    -0.043 A 
ATOM     50  C   UNL     1      17.549  27.706  -9.849  1.00  0.00    -0.059 A 
ATOM     51  C   UNL     1      18.933  27.588 -11.823  1.00  0.00    -0.023 A 
ATOM     52  C   UNL     1      18.190  26.578  -9.330  1.00  0.00    -0.059 A 
ATOM     53  H   UNL     1     -18.914  15.641 -31.707  1.00  0.00     0.063 H 
ATOM     54  C   UNL     1      19.563  26.466 -11.296  1.00  0.00     0.123 A 
ATOM     55  H   UNL     1     -18.914  15.641 -31.707  1.00  0.00     0.066 H 
ATOM     56  C   UNL     1      19.199  25.954 -10.057  1.00  0.00    -0.026 A 
ATOM     57  H   UNL     1     -18.914  15.641 -31.707  1.00  0.00     0.062 H 
ATOM     58  F   UNL     1      20.531  25.857 -11.997  1.00  0.00    -0.207 F 
ATOM     59  H   UNL     1     -18.914  15.641 -31.707  1.00  0.00     0.065 H 
ENDBRANCH  46  49
ENDBRANCH  43  46
ENDBRANCH  41  43
ENDBRANCH   1  39
BRANCH   1  60
ATOM     60  C   UNL     1      19.885  33.202  -8.225  1.00  0.00     0.003 A 
ATOM     61  C   UNL     1      21.263  33.449  -8.215  1.00  0.00    -0.053 A 
ATOM     62  C   UNL     1      19.247  33.190  -6.981  1.00  0.00     0.033 A 
ATOM     63  C   UNL     1      21.933  33.624  -7.005  1.00  0.00    -0.043 A 
ATOM     64  H   UNL     1      23.490  63.153  15.648  1.00  0.00     0.063 H 
ATOM     65  N   UNL     1      19.866  33.376  -5.793  1.00  0.00    -0.264 NA
ATOM     66  H   UNL     1      23.490  63.153  15.648  1.00  0.00     0.084 H 
ATOM     67  C   UNL     1      21.196  33.581  -5.833  1.00  0.00     0.027 A 
ATOM     68  H   UNL     1      23.490  63.153  15.648  1.00  0.00     0.064 H 
ATOM     69  H   UNL     1      23.490  63.153  15.648  1.00  0.00     0.084 H 
ENDBRANCH   1  60
TORSDOF 13
ENDMDL
MODEL 5
REMARK VINA RESULT:    -7.028      3.269      7.060
REMARK INTER + INTRA:         -14.663
REMARK INTER:                 -11.109
REMARK INTRA:                  -3.553
REMARK UNBOUND:                -2.910
REMARK SMILES CC(C)(C)c1ccc(N(C(=O)c2ccncc2)[C@@H](C(=O)NCCc2cccc(F)c2)c2cccnc2)cc1
REMARK SMILES IDX 18 1 9 3 8 4 5 5 6 6 38 7 7 8 37 10 2 14 1 15 3 19 4 23
REMARK SMILES IDX 10 27 11 28 12 29 13 30 17 31 14 32 16 34 15 36 19 39 20 40
REMARK SMILES IDX 21 41 22 43 23 46 24 49 25 50 30 51 26 52 28 54 27 56 29 58
REMARK SMILES IDX 31 60 32 61 36 62 33 63 35 65 34 67
REMARK H PARENT 18 2 6 9 38 11 7 12 37 13 1 16 1 17 1 18 3 20 3 21 3 22 4 24
REMARK H PARENT 4 25 4 26 13 33 17 35 14 37 16 38 21 42 22 44 22 45 23 47
REMARK H PARENT 23 48 25 53 30 55 26 57 27 59 32 64 36 66 33 68 34 69
REMARK Flexibility Score: inf
ROOT
ATOM      1  C   UNL     1      21.406  33.294 -11.196  1.00  0.00     0.142 C 
ATOM      2  H   UNL     1      54.935  14.202  -2.826  1.00  0.00     0.069 H 
ENDROOT
BRANCH   1   3
ATOM      3  N   UNL     1      20.312  33.330 -10.186  1.00  0.00    -0.292 N 
BRANCH   3   4
ATOM      4  C   UNL     1      19.351  32.272 -10.261  1.00  0.00     0.045 A 
ATOM      5  C   UNL     1      17.458  30.142 -10.346  1.00  0.00    -0.042 A 
ATOM      6  C   UNL     1      18.833  29.894 -10.184  1.00  0.00    -0.056 A 
ATOM      7  C   UNL     1      17.062  31.482 -10.477  1.00  0.00    -0.056 A 
ATOM      8  C   UNL     1      19.763  30.941 -10.138  1.00  0.00    -0.038 A 
ATOM      9  H   UNL     1       6.968  27.879  27.378  1.00  0.00     0.063 H 
ATOM     10  C   UNL     1      17.991  32.531 -10.435  1.00  0.00    -0.038 A 
ATOM     11  H   UNL     1       6.968  27.879  27.378  1.00  0.00     0.063 H 
ATOM     12  H   UNL     1       6.968  27.879  27.378  1.00  0.00     0.064 H 
ATOM     13  H   UNL     1       6.968  27.879  27.378  1.00  0.00     0.064 H 
BRANCH   5  14
ATOM     14  C   UNL     1      16.460  28.970 -10.377  1.00  0.00    -0.013 C 
BRANCH  14  15
ATOM     15  C   UNL     1      16.896  27.895  -9.360  1.00  0.00    -0.056 C 
ATOM     16  H   UNL     1      10.228  67.229 -14.140  1.00  0.00     0.024 H 
ATOM     17  H   UNL     1      10.228  67.229 -14.140  1.00  0.00     0.024 H 
ATOM     18  H   UNL     1      10.228  67.229 -14.140  1.00  0.00     0.024 H 
ENDBRANCH  14  15
BRANCH  14  19
ATOM     19  C   UNL     1      16.343  28.283 -11.756  1.00  0.00    -0.056 C 
ATOM     20  H   UNL     1     -19.682  14.840  -7.082  1.00  0.00     0.024 H 
ATOM     21  H   UNL     1     -19.682  14.840  -7.082  1.00  0.00     0.024 H 
ATOM     22  H   UNL     1     -19.682  14.840  -7.082  1.00  0.00     0.024 H 
ENDBRANCH  14  19
BRANCH  14  23
ATOM     23  C   UNL     1      15.046  29.473 -10.001  1.00  0.00    -0.056 C 
ATOM     24  H   UNL     1      -3.018  58.143   6.544  1.00  0.00     0.024 H 
ATOM     25  H   UNL     1      -3.018  58.143   6.544  1.00  0.00     0.024 H 
ATOM     26  H   UNL     1      -3.018  58.143   6.544  1.00  0.00     0.024 H 
ENDBRANCH  14  23
ENDBRANCH   5  14
ENDBRANCH   3   4
BRANCH   3  27
ATOM     27  C   UNL     1      20.388  34.253  -9.135  1.00  0.00     0.259 C 
ATOM     28  O   UNL     1      20.162  35.456  -9.279  1.00  0.00    -0.269 OA
BRANCH  27  29
ATOM     29  C   UNL     1      20.665  33.806  -7.747  1.00  0.00     0.043 A 
ATOM     30  C   UNL     1      21.963  33.710  -7.252  1.00  0.00    -0.031 A 
ATOM     31  C   UNL     1      19.592  33.386  -6.960  1.00  0.00    -0.031 A 
ATOM     32  C   UNL     1      22.132  33.213  -5.969  1.00  0.00     0.028 A 
ATOM     33  H   UNL     1       7.058  70.566 -23.186  1.00  0.00     0.065 H 
ATOM     34  C   UNL     1      19.864  32.910  -5.691  1.00  0.00     0.028 A 
ATOM     35  H   UNL     1       7.058  70.566 -23.186  1.00  0.00     0.065 H 
ATOM     36  N   UNL     1      21.110  32.825  -5.177  1.00  0.00    -0.265 NA
ATOM     37  H   UNL     1       7.058  70.566 -23.186  1.00  0.00     0.084 H 
ATOM     38  H   UNL     1       7.058  70.566 -23.186  1.00  0.00     0.084 H 
ENDBRANCH  27  29
ENDBRANCH   3  27
ENDBRANCH   1   3
BRANCH   1  39
ATOM     39  C   UNL     1      20.928  33.906 -12.541  1.00  0.00     0.247 C 
ATOM     40  O   UNL     1      20.144  34.850 -12.568  1.00  0.00    -0.272 OA
ATOM     41  N   UNL     1      21.459  33.325 -13.676  1.00  0.00    -0.354 N 
ATOM     42  H   UNL     1       2.322   9.215  13.598  1.00  0.00     0.163 HD
BRANCH  41  43
ATOM     43  C   UNL     1      21.135  33.763 -15.019  1.00  0.00     0.021 C 
ATOM     44  H   UNL     1      51.415  43.011  12.785  1.00  0.00     0.049 H 
ATOM     45  H   UNL     1      51.415  43.011  12.785  1.00  0.00     0.049 H 
BRANCH  43  46
ATOM     46  C   UNL     1      19.878  33.090 -15.581  1.00  0.00    -0.010 C 
ATOM     47  H   UNL     1      46.524  51.519  13.540  1.00  0.00     0.033 H 
ATOM     48  H   UNL     1      46.524  51.519  13.540  1.00  0.00     0.033 H 
BRANCH  46  49
ATOM     49  C   UNL     1      19.688  31.652 -15.161  1.00  0.00    -0.043 A 
ATOM     50  C   UNL     1      18.681  31.297 -14.250  1.00  0.00    -0.059 A 
ATOM     51  C   UNL     1      20.530  30.651 -15.659  1.00  0.00    -0.023 A 
ATOM     52  C   UNL     1      18.509  29.966 -13.860  1.00  0.00    -0.059 A 
ATOM     53  H   UNL     1      -7.510  40.468 -48.643  1.00  0.00     0.063 H 
ATOM     54  C   UNL     1      20.349  29.329 -15.265  1.00  0.00     0.123 A 
ATOM     55  H   UNL     1      -7.510  40.468 -48.643  1.00  0.00     0.066 H 
ATOM     56  C   UNL     1      19.345  28.978 -14.372  1.00  0.00    -0.026 A 
ATOM     57  H   UNL     1      -7.510  40.468 -48.643  1.00  0.00     0.062 H 
ATOM     58  F   UNL     1      21.148  28.373 -15.761  1.00  0.00    -0.207 F 
ATOM     59  H   UNL     1      -7.510  40.468 -48.643  1.00  0.00     0.065 H 
ENDBRANCH  46  49
ENDBRANCH  43  46
ENDBRANCH  41  43
ENDBRANCH   1  39
BRANCH   1  60
ATOM     60  C   UNL     1      22.782  33.784 -10.744  1.00  0.00     0.003 A 
ATOM     61  C   UNL     1      23.196  35.121 -10.758  1.00  0.00    -0.053 A 
ATOM     62  C   UNL     1      23.680  32.859 -10.203  1.00  0.00     0.033 A 
ATOM     63  C   UNL     1      24.464  35.463 -10.288  1.00  0.00    -0.043 A 
ATOM     64  H   UNL     1      37.083  39.118  24.568  1.00  0.00     0.063 H 
ATOM     65  N   UNL     1      24.907  33.164  -9.722  1.00  0.00    -0.264 NA
ATOM     66  H   UNL     1      37.083  39.118  24.568  1.00  0.00     0.084 H 
ATOM     67  C   UNL     1      25.271  34.458  -9.782  1.00  0.00     0.027 A 
ATOM     68  H   UNL     1      37.083  39.118  24.568  1.00  0.00     0.064 H 
ATOM     69  H   UNL     1      37.083  39.118  24.568  1.00  0.00     0.084 H 
ENDBRANCH   1  60
TORSDOF 13
ENDMDL
MODEL 6
REMARK VINA RESULT:    -6.972      1.711      2.101
REMARK INTER + INTRA:         -14.570
REMARK INTER:                 -12.068
REMARK INTRA:                  -2.502
REMARK UNBOUND:                -2.910
REMARK SMILES CC(C)(C)c1ccc(N(C(=O)c2ccncc2)[C@@H](C(=O)NCCc2cccc(F)c2)c2cccnc2)cc1
REMARK SMILES IDX 18 1 9 3 8 4 5 5 6 6 38 7 7 8 37 10 2 14 1 15 3 19 4 23
REMARK SMILES IDX 10 27 11 28 12 29 13 30 17 31 14 32 16 34 15 36 19 39 20 40
REMARK SMILES IDX 21 41 22 43 23 46 24 49 25 50 30 51 26 52 28 54 27 56 29 58
REMARK SMILES IDX 31 60 32 61 36 62 33 63 35 65 34 67
REMARK H PARENT 18 2 6 9 38 11 7 12 37 13 1 16 1 17 1 18 3 20 3 21 3 22 4 24
REMARK H PARENT 4 25 4 26 13 33 17 35 14 37 16 38 21 42 22 44 22 45 23 47
REMARK H PARENT 23 48 25 53 30 55 26 57 27 59 32 64 36 66 33 68 34 69
REMARK Flexibility Score: inf
ROOT
ATOM      1  C   UNL     1      19.106  33.718  -9.729  1.00  0.00     0.142 C 
ATOM      2  H   UNL     1       9.436  40.040  28.024  1.00  0.00     0.069 H 
ENDROOT
BRANCH   1   3
ATOM      3  N   UNL     1      20.198  34.519 -10.350  1.00  0.00    -0.292 N 
BRANCH   3   4
ATOM      4  C   UNL     1      19.821  35.798 -10.871  1.00  0.00     0.045 A 
ATOM      5  C   UNL     1      19.091  38.323 -11.974  1.00  0.00    -0.042 A 
ATOM      6  C   UNL     1      20.405  37.832 -12.075  1.00  0.00    -0.056 A 
ATOM      7  C   UNL     1      18.160  37.522 -11.294  1.00  0.00    -0.056 A 
ATOM      8  C   UNL     1      20.763  36.589 -11.537  1.00  0.00    -0.038 A 
ATOM      9  H   UNL     1       6.439  27.648 -47.529  1.00  0.00     0.063 H 
ATOM     10  C   UNL     1      18.517  36.279 -10.752  1.00  0.00    -0.038 A 
ATOM     11  H   UNL     1       6.439  27.648 -47.529  1.00  0.00     0.063 H 
ATOM     12  H   UNL     1       6.439  27.648 -47.529  1.00  0.00     0.064 H 
ATOM     13  H   UNL     1       6.439  27.648 -47.529  1.00  0.00     0.064 H 
BRANCH   5  14
ATOM     14  C   UNL     1      18.727  39.687 -12.589  1.00  0.00    -0.013 C 
BRANCH  14  15
ATOM     15  C   UNL     1      18.780  39.588 -14.128  1.00  0.00    -0.056 C 
ATOM     16  H   UNL     1      27.101  63.379  17.165  1.00  0.00     0.024 H 
ATOM     17  H   UNL     1      27.101  63.379  17.165  1.00  0.00     0.024 H 
ATOM     18  H   UNL     1      27.101  63.379  17.165  1.00  0.00     0.024 H 
ENDBRANCH  14  15
BRANCH  14  19
ATOM     19  C   UNL     1      19.666  40.838 -12.165  1.00  0.00    -0.056 C 
ATOM     20  H   UNL     1      48.087  32.954 -37.275  1.00  0.00     0.024 H 
ATOM     21  H   UNL     1      48.087  32.954 -37.275  1.00  0.00     0.024 H 
ATOM     22  H   UNL     1      48.087  32.954 -37.275  1.00  0.00     0.024 H 
ENDBRANCH  14  19
BRANCH  14  23
ATOM     23  C   UNL     1      17.295  40.090 -12.162  1.00  0.00    -0.056 C 
ATOM     24  H   UNL     1     -18.752  38.299 -23.085  1.00  0.00     0.024 H 
ATOM     25  H   UNL     1     -18.752  38.299 -23.085  1.00  0.00     0.024 H 
ATOM     26  H   UNL     1     -18.752  38.299 -23.085  1.00  0.00     0.024 H 
ENDBRANCH  14  23
ENDBRANCH   5  14
ENDBRANCH   3   4
BRANCH   3  27
ATOM     27  C   UNL     1      21.521  34.078 -10.220  1.00  0.00     0.259 C 
ATOM     28  O   UNL     1      22.256  34.421  -9.292  1.00  0.00    -0.269 OA
BRANCH  27  29
ATOM     29  C   UNL     1      22.090  33.085 -11.165  1.00  0.00     0.043 A 
ATOM     30  C   UNL     1      22.189  33.344 -12.530  1.00  0.00    -0.031 A 
ATOM     31  C   UNL     1      22.443  31.829 -10.671  1.00  0.00    -0.031 A 
ATOM     32  C   UNL     1      22.664  32.331 -13.348  1.00  0.00     0.028 A 
ATOM     33  H   UNL     1      40.340  59.333  16.271  1.00  0.00     0.065 H 
ATOM     34  C   UNL     1      22.912  30.887 -11.568  1.00  0.00     0.028 A 
ATOM     35  H   UNL     1      40.340  59.333  16.271  1.00  0.00     0.065 H 
ATOM     36  N   UNL     1      23.038  31.116 -12.894  1.00  0.00    -0.265 NA
ATOM     37  H   UNL     1      40.340  59.333  16.271  1.00  0.00     0.084 H 
ATOM     38  H   UNL     1      40.340  59.333  16.271  1.00  0.00     0.084 H 
ENDBRANCH  27  29
ENDBRANCH   3  27
ENDBRANCH   1   3
BRANCH   1  39
ATOM     39  C   UNL     1      18.390  32.849 -10.799  1.00  0.00     0.247 C 
ATOM     40  O   UNL     1      18.970  32.491 -11.819  1.00  0.00    -0.272 OA
ATOM     41  N   UNL     1      17.085  32.507 -10.505  1.00  0.00    -0.354 N 
ATOM     42  H   UNL     1      27.473  72.299 -10.251  1.00  0.00     0.163 HD
BRANCH  41  43
ATOM     43  C   UNL     1      16.260  31.698 -11.380  1.00  0.00     0.021 C 
ATOM     44  H   UNL     1      36.096  68.691 -15.055  1.00  0.00     0.049 H 
ATOM     45  H   UNL     1      36.096  68.691 -15.055  1.00  0.00     0.049 H 
BRANCH  43  46
ATOM     46  C   UNL     1      15.773  30.405 -10.715  1.00  0.00    -0.010 C 
ATOM     47  H   UNL     1      37.701  67.700 -15.808  1.00  0.00     0.033 H 
ATOM     48  H   UNL     1      37.701  67.700 -15.808  1.00  0.00     0.033 H 
BRANCH  46  49
ATOM     49  C   UNL     1      16.794  29.293 -10.672  1.00  0.00    -0.043 A 
ATOM     50  C   UNL     1      17.695  29.104 -11.732  1.00  0.00    -0.059 A 
ATOM     51  C   UNL     1      16.845  28.420  -9.580  1.00  0.00    -0.023 A 
ATOM     52  C   UNL     1      18.636  28.073 -11.691  1.00  0.00    -0.059 A 
ATOM     53  H   UNL     1      35.327  66.311   4.320  1.00  0.00     0.063 H 
ATOM     54  C   UNL     1      17.786  27.397  -9.549  1.00  0.00     0.123 A 
ATOM     55  H   UNL     1      35.327  66.311   4.320  1.00  0.00     0.066 H 
ATOM     56  C   UNL     1      18.684  27.217 -10.593  1.00  0.00    -0.026 A 
ATOM     57  H   UNL     1      35.327  66.311   4.320  1.00  0.00     0.062 H 
ATOM     58  F   UNL     1      17.841  26.576  -8.491  1.00  0.00    -0.207 F 
ATOM     59  H   UNL     1      35.327  66.311   4.320  1.00  0.00     0.065 H 
ENDBRANCH  46  49
ENDBRANCH  43  46
ENDBRANCH  41  43
ENDBRANCH   1  39
BRANCH   1  60
ATOM     60  C   UNL     1      19.445  32.966  -8.442  1.00  0.00     0.003 A 
ATOM     61  C   UNL     1      19.512  33.550  -7.172  1.00  0.00    -0.053 A 
ATOM     62  C   UNL     1      19.628  31.582  -8.501  1.00  0.00     0.033 A 
ATOM     63  C   UNL     1      19.794  32.763  -6.056  1.00  0.00    -0.043 A 
ATOM     64  H   UNL     1      -2.100   9.677  13.316  1.00  0.00     0.063 H 
ATOM     65  N   UNL     1      19.883  30.790  -7.434  1.00  0.00    -0.264 NA
ATOM     66  H   UNL     1      -2.100   9.677  13.316  1.00  0.00     0.084 H 
ATOM     67  C   UNL     1      19.966  31.401  -6.238  1.00  0.00     0.027 A 
ATOM     68  H   UNL     1      -2.100   9.677  13.316  1.00  0.00     0.064 H 
ATOM     69  H   UNL     1      -2.100   9.677  13.316  1.00  0.00     0.084 H 
ENDBRANCH   1  60
TORSDOF 13
ENDMDL
MODEL 7
REMARK VINA RESULT:    -6.950      1.757      4.286
REMARK INTER + INTRA:         -14.533
REMARK INTER:                 -11.505
REMARK INTRA:                  -3.028
REMARK UNBOUND:                -2.910
REMARK SMILES CC(C)(C)c1ccc(N(C(=O)c2ccncc2)[C@@H](C(=O)NCCc2cccc(F)c2)c2cccnc2)cc1
REMARK SMILES IDX 18 1 9 3 8 4 5 5 6 6 38 7 7 8 37 10 2 14 1 15 3 19 4 23
REMARK SMILES IDX 10 27 11 28 12 29 13 30 17 31 14 32 16 34 15 36 19 39 20 40
REMARK SMILES IDX 21 41 22 43 23 46 24 49 25 50 30 51 26 52 28 54 27 56 29 58
REMARK SMILES IDX 31 60 32 61 36 62 33 63 35 65 34 67
REMARK H PARENT 18 2 6 9 38 11 7 12 37 13 1 16 1 17 1 18 3 20 3 21 3 22 4 24
REMARK H PARENT 4 25 4 26 13 33 17 35 14 37 16 38 21 42 22 44 22 45 23 47
REMARK H PARENT 23 48 25 53 30 55 26 57 27 59 32 64 36 66 33 68 34 69
REMARK Flexibility Score: inf
ROOT
ATOM      1  C   UNL     1      18.568  32.159 -12.212  1.00  0.00     0.142 C 
ATOM      2  H   UNL     1     -18.866  27.535  -0.546  1.00  0.00     0.069 H 
ENDROOT
BRANCH   1   3
ATOM      3  N   UNL     1      19.480  33.030 -11.419  1.00  0.00    -0.292 N 
BRANCH   3   4
ATOM      4  C   UNL     1      19.257  34.440 -11.529  1.00  0.00     0.045 A 
ATOM      5  C   UNL     1      18.855  37.249 -11.804  1.00  0.00    -0.042 A 
ATOM      6  C   UNL     1      20.138  36.708 -11.606  1.00  0.00    -0.056 A 
ATOM      7  C   UNL     1      17.781  36.346 -11.847  1.00  0.00    -0.056 A 
ATOM      8  C   UNL     1      20.336  35.327 -11.475  1.00  0.00    -0.038 A 
ATOM      9  H   UNL     1      20.538  41.322 -50.776  1.00  0.00     0.063 H 
ATOM     10  C   UNL     1      17.977  34.964 -11.713  1.00  0.00    -0.038 A 
ATOM     11  H   UNL     1      20.538  41.322 -50.776  1.00  0.00     0.063 H 
ATOM     12  H   UNL     1      20.538  41.322 -50.776  1.00  0.00     0.064 H 
ATOM     13  H   UNL     1      20.538  41.322 -50.776  1.00  0.00     0.064 H 
BRANCH   5  14
ATOM     14  C   UNL     1      18.673  38.770 -11.959  1.00  0.00    -0.013 C 
BRANCH  14  15
ATOM     15  C   UNL     1      20.045  39.468 -11.842  1.00  0.00    -0.056 C 
ATOM     16  H   UNL     1      -5.115  14.077   6.510  1.00  0.00     0.024 H 
ATOM     17  H   UNL     1      -5.115  14.077   6.510  1.00  0.00     0.024 H 
ATOM     18  H   UNL     1      -5.115  14.077   6.510  1.00  0.00     0.024 H 
ENDBRANCH  14  15
BRANCH  14  19
ATOM     19  C   UNL     1      17.740  39.401 -10.902  1.00  0.00    -0.056 C 
ATOM     20  H   UNL     1       2.949   6.196   2.477  1.00  0.00     0.024 H 
ATOM     21  H   UNL     1       2.949   6.196   2.477  1.00  0.00     0.024 H 
ATOM     22  H   UNL     1       2.949   6.196   2.477  1.00  0.00     0.024 H 
ENDBRANCH  14  19
BRANCH  14  23
ATOM     23  C   UNL     1      18.066  39.088 -13.346  1.00  0.00    -0.056 C 
ATOM     24  H   UNL     1      18.656  64.650 -41.062  1.00  0.00     0.024 H 
ATOM     25  H   UNL     1      18.656  64.650 -41.062  1.00  0.00     0.024 H 
ATOM     26  H   UNL     1      18.656  64.650 -41.062  1.00  0.00     0.024 H 
ENDBRANCH  14  23
ENDBRANCH   5  14
ENDBRANCH   3   4
BRANCH   3  27
ATOM     27  C   UNL     1      20.348  32.439 -10.493  1.00  0.00     0.259 C 
ATOM     28  O   UNL     1      21.467  32.017 -10.793  1.00  0.00    -0.269 OA
BRANCH  27  29
ATOM     29  C   UNL     1      19.993  32.368  -9.053  1.00  0.00     0.043 A 
ATOM     30  C   UNL     1      19.298  33.394  -8.418  1.00  0.00    -0.031 A 
ATOM     31  C   UNL     1      20.456  31.282  -8.310  1.00  0.00    -0.031 A 
ATOM     32  C   UNL     1      19.074  33.278  -7.055  1.00  0.00     0.028 A 
ATOM     33  H   UNL     1       3.218  13.910 -43.005  1.00  0.00     0.065 H 
ATOM     34  C   UNL     1      20.178  31.256  -6.956  1.00  0.00     0.028 A 
ATOM     35  H   UNL     1       3.218  13.910 -43.005  1.00  0.00     0.065 H 
ATOM     36  N   UNL     1      19.487  32.226  -6.317  1.00  0.00    -0.265 NA
ATOM     37  H   UNL     1       3.218  13.910 -43.005  1.00  0.00     0.084 H 
ATOM     38  H   UNL     1       3.218  13.910 -43.005  1.00  0.00     0.084 H 
ENDBRANCH  27  29
ENDBRANCH   3  27
ENDBRANCH   1   3
BRANCH   1  39
ATOM     39  C   UNL     1      19.255  31.704 -13.529  1.00  0.00     0.247 C 
ATOM     40  O   UNL     1      20.377  32.097 -13.829  1.00  0.00    -0.272 OA
ATOM     41  N   UNL     1      18.522  30.829 -14.305  1.00  0.00    -0.354 N 
ATOM     42  H   UNL     1       1.330  66.597  -3.515  1.00  0.00     0.163 HD
BRANCH  41  43
ATOM     43  C   UNL     1      18.999  30.292 -15.564  1.00  0.00     0.021 C 
ATOM     44  H   UNL     1      13.059  69.039  -0.108  1.00  0.00     0.049 H 
ATOM     45  H   UNL     1      13.059  69.039  -0.108  1.00  0.00     0.049 H 
BRANCH  43  46
ATOM     46  C   UNL     1      19.004  28.760 -15.597  1.00  0.00    -0.010 C 
ATOM     47  H   UNL     1       7.902  69.096  -3.459  1.00  0.00     0.033 H 
ATOM     48  H   UNL     1       7.902  69.096  -3.459  1.00  0.00     0.033 H 
BRANCH  46  49
ATOM     49  C   UNL     1      19.659  28.103 -14.406  1.00  0.00    -0.043 A 
ATOM     50  C   UNL     1      18.954  27.180 -13.617  1.00  0.00    -0.059 A 
ATOM     51  C   UNL     1      20.977  28.420 -14.057  1.00  0.00    -0.023 A 
ATOM     52  C   UNL     1      19.562  26.575 -12.514  1.00  0.00    -0.059 A 
ATOM     53  H   UNL     1      23.881   1.722 -49.402  1.00  0.00     0.063 H 
ATOM     54  C   UNL     1      21.572  27.812 -12.957  1.00  0.00     0.123 A 
ATOM     55  H   UNL     1      23.881   1.722 -49.402  1.00  0.00     0.066 H 
ATOM     56  C   UNL     1      20.877  26.891 -12.184  1.00  0.00    -0.026 A 
ATOM     57  H   UNL     1      23.881   1.722 -49.402  1.00  0.00     0.062 H 
ATOM     58  F   UNL     1      22.841  28.108 -12.640  1.00  0.00    -0.207 F 
ATOM     59  H   UNL     1      23.881   1.722 -49.402  1.00  0.00     0.065 H 
ENDBRANCH  46  49
ENDBRANCH  43  46
ENDBRANCH  41  43
ENDBRANCH   1  39
BRANCH   1  60
ATOM     60  C   UNL     1      17.858  31.034 -11.460  1.00  0.00     0.003 A 
ATOM     61  C   UNL     1      18.463  29.838 -11.058  1.00  0.00    -0.053 A 
ATOM     62  C   UNL     1      16.530  31.222 -11.067  1.00  0.00     0.033 A 
ATOM     63  C   UNL     1      17.731  28.891 -10.342  1.00  0.00    -0.043 A 
ATOM     64  H   UNL     1       8.059  28.021  25.619  1.00  0.00     0.063 H 
ATOM     65  N   UNL     1      15.800  30.331 -10.357  1.00  0.00    -0.264 NA
ATOM     66  H   UNL     1       8.059  28.021  25.619  1.00  0.00     0.084 H 
ATOM     67  C   UNL     1      16.417  29.184 -10.018  1.00  0.00     0.027 A 
ATOM     68  H   UNL     1       8.059  28.021  25.619  1.00  0.00     0.064 H 
ATOM     69  H   UNL     1       8.059  28.021  25.619  1.00  0.00     0.084 H 
ENDBRANCH   1  60
TORSDOF 13
ENDMDL
MODEL 8
REMARK VINA RESULT:    -6.921      2.731      5.197
REMARK INTER + INTRA:         -14.484
REMARK INTER:                 -12.148
REMARK INTRA:                  -2.337
REMARK UNBOUND:                -2.910
REMARK SMILES CC(C)(C)c1ccc(N(C(=O)c2ccncc2)[C@@H](C(=O)NCCc2cccc(F)c2)c2cccnc2)cc1
REMARK SMILES IDX 18 1 9 3 8 4 5 5 6 6 38 7 7 8 37 10 2 14 1 15 3 19 4 23
REMARK SMILES IDX 10 27 11 28 12 29 13 30 17 31 14 32 16 34 15 36 19 39 20 40
REMARK SMILES IDX 21 41 22 43 23 46 24 49 25 50 30 51 26 52 28 54 27 56 29 58
REMARK SMILES IDX 31 60 32 61 36 62 33 63 35 65 34 67
REMARK H PARENT 18 2 6 9 38 11 7 12 37 13 1 16 1 17 1 18 3 20 3 21 3 22 4 24
REMARK H PARENT 4 25 4 26 13 33 17 35 14 37 16 38 21 42 22 44 22 45 23 47
REMARK H PARENT 23 48 25 53 30 55 26 57 27 59 32 64 36 66 33 68 34 69
REMARK Flexibility Score: inf
ROOT
ATOM      1  C   UNL     1      20.646  32.775 -10.161  1.00  0.00     0.142 C 
ATOM      2  H   UNL     1      52.152  22.590 -31.666  1.00  0.00     0.069 H 
ENDROOT
BRANCH   1   3
ATOM      3  N   UNL     1      20.656  34.062  -9.412  1.00  0.00    -0.292 N 
BRANCH   3   4
ATOM      4  C   UNL     1      20.250  35.221 -10.147  1.00  0.00     0.045 A 
ATOM      5  C   UNL     1      19.478  37.506 -11.667  1.00  0.00    -0.042 A 
ATOM      6  C   UNL     1      20.832  37.199 -11.442  1.00  0.00    -0.056 A 
ATOM      7  C   UNL     1      18.525  36.646 -11.099  1.00  0.00    -0.056 A 
ATOM      8  C   UNL     1      21.211  36.074 -10.699  1.00  0.00    -0.038 A 
ATOM      9  H   UNL     1      16.185  21.939 -47.515  1.00  0.00     0.063 H 
ATOM     10  C   UNL     1      18.903  35.521 -10.352  1.00  0.00    -0.038 A 
ATOM     11  H   UNL     1      16.185  21.939 -47.515  1.00  0.00     0.063 H 
ATOM     12  H   UNL     1      16.185  21.939 -47.515  1.00  0.00     0.064 H 
ATOM     13  H   UNL     1      16.185  21.939 -47.515  1.00  0.00     0.064 H 
BRANCH   5  14
ATOM     14  C   UNL     1      19.094  38.742 -12.502  1.00  0.00    -0.013 C 
BRANCH  14  15
ATOM     15  C   UNL     1      20.071  38.887 -13.687  1.00  0.00    -0.056 C 
ATOM     16  H   UNL     1     -13.991  53.094   2.200  1.00  0.00     0.024 H 
ATOM     17  H   UNL     1     -13.991  53.094   2.200  1.00  0.00     0.024 H 
ATOM     18  H   UNL     1     -13.991  53.094   2.200  1.00  0.00     0.024 H 
ENDBRANCH  14  15
BRANCH  14  19
ATOM     19  C   UNL     1      19.126  40.068 -11.710  1.00  0.00    -0.056 C 
ATOM     20  H   UNL     1      55.360  36.556   1.526  1.00  0.00     0.024 H 
ATOM     21  H   UNL     1      55.360  36.556   1.526  1.00  0.00     0.024 H 
ATOM     22  H   UNL     1      55.360  36.556   1.526  1.00  0.00     0.024 H 
ENDBRANCH  14  19
BRANCH  14  23
ATOM     23  C   UNL     1      17.657  38.578 -13.052  1.00  0.00    -0.056 C 
ATOM     24  H   UNL     1     -18.468  45.571  -4.807  1.00  0.00     0.024 H 
ATOM     25  H   UNL     1     -18.468  45.571  -4.807  1.00  0.00     0.024 H 
ATOM     26  H   UNL     1     -18.468  45.571  -4.807  1.00  0.00     0.024 H 
ENDBRANCH  14  23
ENDBRANCH   5  14
ENDBRANCH   3   4
BRANCH   3  27
ATOM     27  C   UNL     1      20.865  34.039  -8.027  1.00  0.00     0.259 C 
ATOM     28  O   UNL     1      19.946  34.090  -7.207  1.00  0.00    -0.269 OA
BRANCH  27  29
ATOM     29  C   UNL     1      22.227  33.859  -7.464  1.00  0.00     0.043 A 
ATOM     30  C   UNL     1      22.442  33.185  -6.264  1.00  0.00    -0.031 A 
ATOM     31  C   UNL     1      23.299  34.468  -8.117  1.00  0.00    -0.031 A 
ATOM     32  C   UNL     1      23.738  33.129  -5.776  1.00  0.00     0.028 A 
ATOM     33  H   UNL     1       2.066  14.338 -38.884  1.00  0.00     0.065 H 
ATOM     34  C   UNL     1      24.555  34.351  -7.552  1.00  0.00     0.028 A 
ATOM     35  H   UNL     1       2.066  14.338 -38.884  1.00  0.00     0.065 H 
ATOM     36  N   UNL     1      24.797  33.685  -6.402  1.00  0.00    -0.265 NA
ATOM     37  H   UNL     1       2.066  14.338 -38.884  1.00  0.00     0.084 H 
ATOM     38  H   UNL     1       2.066  14.338 -38.884  1.00  0.00     0.084 H 
ENDBRANCH  27  29
ENDBRANCH   3  27
ENDBRANCH   1   3
BRANCH   1  39
ATOM     39  C   UNL     1      19.389  31.940  -9.796  1.00  0.00     0.247 C 
ATOM     40  O   UNL     1      18.511  32.396  -9.070  1.00  0.00    -0.272 OA
ATOM     41  N   UNL     1      19.334  30.679 -10.356  1.00  0.00    -0.354 N 
ATOM     42  H   UNL     1      52.536  40.943  11.636  1.00  0.00     0.163 HD
BRANCH  41  43
ATOM     43  C   UNL     1      18.238  29.758 -10.135  1.00  0.00     0.021 C 
ATOM     44  H   UNL     1      53.765  39.197  10.460  1.00  0.00     0.049 H 
ATOM     45  H   UNL     1      53.765  39.197  10.460  1.00  0.00     0.049 H 
BRANCH  43  46
ATOM     46  C   UNL     1      17.174  29.817 -11.237  1.00  0.00    -0.010 C 
ATOM     47  H   UNL     1      52.971  40.261  11.283  1.00  0.00     0.033 H 
ATOM     48  H   UNL     1      52.971  40.261  11.283  1.00  0.00     0.033 H 
BRANCH  46  49
ATOM     49  C   UNL     1      16.234  30.995 -11.147  1.00  0.00    -0.043 A 
ATOM     50  C   UNL     1      16.486  32.171 -11.871  1.00  0.00    -0.059 A 
ATOM     51  C   UNL     1      15.105  30.940 -10.322  1.00  0.00    -0.023 A 
ATOM     52  C   UNL     1      15.616  33.261 -11.783  1.00  0.00    -0.059 A 
ATOM     53  H   UNL     1       5.226   6.565 -46.083  1.00  0.00     0.063 H 
ATOM     54  C   UNL     1      14.246  32.030 -10.243  1.00  0.00     0.123 A 
ATOM     55  H   UNL     1       5.226   6.565 -46.083  1.00  0.00     0.066 H 
ATOM     56  C   UNL     1      14.490  33.190 -10.968  1.00  0.00    -0.026 A 
ATOM     57  H   UNL     1       5.226   6.565 -46.083  1.00  0.00     0.062 H 
ATOM     58  F   UNL     1      13.156  31.963  -9.465  1.00  0.00    -0.207 F 
ATOM     59  H   UNL     1       5.226   6.565 -46.083  1.00  0.00     0.065 H 
ENDBRANCH  46  49
ENDBRANCH  43  46
ENDBRANCH  41  43
ENDBRANCH   1  39
BRANCH   1  60
ATOM     60  C   UNL     1      20.933  32.845 -11.661  1.00  0.00     0.003 A 
ATOM     61  C   UNL     1      19.964  33.062 -12.648  1.00  0.00    -0.053 A 
ATOM     62  C   UNL     1      22.258  32.765 -12.097  1.00  0.00     0.033 A 
ATOM     63  C   UNL     1      20.340  33.145 -13.988  1.00  0.00    -0.043 A 
ATOM     64  H   UNL     1      36.009  61.107 -32.966  1.00  0.00     0.063 H 
ATOM     65  N   UNL     1      22.655  32.861 -13.386  1.00  0.00    -0.264 NA
ATOM     66  H   UNL     1      36.009  61.107 -32.966  1.00  0.00     0.084 H 
ATOM     67  C   UNL     1      21.685  33.041 -14.302  1.00  0.00     0.027 A 
ATOM     68  H   UNL     1      36.009  61.107 -32.966  1.00  0.00     0.064 H 
ATOM     69  H   UNL     1      36.009  61.107 -32.966  1.00  0.00     0.084 H 
ENDBRANCH   1  60
TORSDOF 13
ENDMDL
MODEL 9
REMARK VINA RESULT:    -6.816      3.211      8.669
REMARK INTER + INTRA:         -14.309
REMARK INTER:                 -12.522
REMARK INTRA:                  -1.787
REMARK UNBOUND:                -2.910
REMARK SMILES CC(C)(C)c1ccc(N(C(=O)c2ccncc2)[C@@H](C(=O)NCCc2cccc(F)c2)c2cccnc2)cc1
REMARK SMILES IDX 18 1 9 3 8 4 5 5 6 6 38 7 7 8 37 10 2 14 1 15 3 19 4 23
REMARK SMILES IDX 10 27 11 28 12 29 13 30 17 31 14 32 16 34 15 36 19 39 20 40
REMARK SMILES IDX 21 41 22 43 23 46 24 49 25 50 30 51 26 52 28 54 27 56 29 58
REMARK SMILES IDX 31 60 32 61 36 62 33 63 35 65 34 67
REMARK H PARENT 18 2 6 9 38 11 7 12 37 13 1 16 1 17 1 18 3 20 3 21 3 22 4 24
REMARK H PARENT 4 25 4 26 13 33 17 35 14 37 16 38 21 42 22 44 22 45 23 47
REMARK H PARENT 23 48 25 53 30 55 26 57 27 59 32 64 36 66 33 68 34 69
REMARK Flexibility Score: inf
ROOT
ATOM      1  C   UNL     1      21.148  33.512 -11.335  1.00  0.00     0.142 C 
ATOM      2  H   UNL     1      49.145   5.801 -13.995  1.00  0.00     0.069 H 
ENDROOT
BRANCH   1   3
ATOM      3  N   UNL     1      20.146  33.437 -10.236  1.00  0.00    -0.292 N 
BRANCH   3   4
ATOM      4  C   UNL     1      19.198  32.368 -10.320  1.00  0.00     0.045 A 
ATOM      5  C   UNL     1      17.327  30.220 -10.420  1.00  0.00    -0.042 A 
ATOM      6  C   UNL     1      18.690  29.992 -10.164  1.00  0.00    -0.056 A 
ATOM      7  C   UNL     1      16.931  31.549 -10.637  1.00  0.00    -0.056 A 
ATOM      8  C   UNL     1      19.609  31.048 -10.110  1.00  0.00    -0.038 A 
ATOM      9  H   UNL     1       4.570  29.596  26.662  1.00  0.00     0.063 H 
ATOM     10  C   UNL     1      17.850  32.607 -10.587  1.00  0.00    -0.038 A 
ATOM     11  H   UNL     1       4.570  29.596  26.662  1.00  0.00     0.063 H 
ATOM     12  H   UNL     1       4.570  29.596  26.662  1.00  0.00     0.064 H 
ATOM     13  H   UNL     1       4.570  29.596  26.662  1.00  0.00     0.064 H 
BRANCH   5  14
ATOM     14  C   UNL     1      16.339  29.039 -10.458  1.00  0.00    -0.013 C 
BRANCH  14  15
ATOM     15  C   UNL     1      16.794  27.955  -9.458  1.00  0.00    -0.056 C 
ATOM     16  H   UNL     1     -11.044  37.087 -36.956  1.00  0.00     0.024 H 
ATOM     17  H   UNL     1     -11.044  37.087 -36.956  1.00  0.00     0.024 H 
ATOM     18  H   UNL     1     -11.044  37.087 -36.956  1.00  0.00     0.024 H 
ENDBRANCH  14  15
BRANCH  14  19
ATOM     19  C   UNL     1      16.217  28.368 -11.844  1.00  0.00    -0.056 C 
ATOM     20  H   UNL     1      -5.962  -1.318  -0.566  1.00  0.00     0.024 H 
ATOM     21  H   UNL     1      -5.962  -1.318  -0.566  1.00  0.00     0.024 H 
ATOM     22  H   UNL     1      -5.962  -1.318  -0.566  1.00  0.00     0.024 H 
ENDBRANCH  14  19
BRANCH  14  23
ATOM     23  C   UNL     1      14.924  29.524 -10.063  1.00  0.00    -0.056 C 
ATOM     24  H   UNL     1     -15.692  19.513   9.542  1.00  0.00     0.024 H 
ATOM     25  H   UNL     1     -15.692  19.513   9.542  1.00  0.00     0.024 H 
ATOM     26  H   UNL     1     -15.692  19.513   9.542  1.00  0.00     0.024 H 
ENDBRANCH  14  23
ENDBRANCH   5  14
ENDBRANCH   3   4
BRANCH   3  27
ATOM     27  C   UNL     1      20.300  34.269  -9.119  1.00  0.00     0.259 C 
ATOM     28  O   UNL     1      20.151  35.491  -9.165  1.00  0.00    -0.269 OA
BRANCH  27  29
ATOM     29  C   UNL     1      20.570  33.698  -7.775  1.00  0.00     0.043 A 
ATOM     30  C   UNL     1      19.539  33.328  -6.915  1.00  0.00    -0.031 A 
ATOM     31  C   UNL     1      21.893  33.625  -7.341  1.00  0.00    -0.031 A 
ATOM     32  C   UNL     1      19.881  32.874  -5.651  1.00  0.00     0.028 A 
ATOM     33  H   UNL     1      22.488  16.781 -46.310  1.00  0.00     0.065 H 
ATOM     34  C   UNL     1      22.132  33.154  -6.063  1.00  0.00     0.028 A 
ATOM     35  H   UNL     1      22.488  16.781 -46.310  1.00  0.00     0.065 H 
ATOM     36  N   UNL     1      21.154  32.767  -5.215  1.00  0.00    -0.265 NA
ATOM     37  H   UNL     1      22.488  16.781 -46.310  1.00  0.00     0.084 H 
ATOM     38  H   UNL     1      22.488  16.781 -46.310  1.00  0.00     0.084 H 
ENDBRANCH  27  29
ENDBRANCH   3  27
ENDBRANCH   1   3
BRANCH   1  39
ATOM     39  C   UNL     1      20.778  34.640 -12.336  1.00  0.00     0.247 C 
ATOM     40  O   UNL     1      20.141  34.400 -13.357  1.00  0.00    -0.272 OA
ATOM     41  N   UNL     1      21.201  35.906 -11.982  1.00  0.00    -0.354 N 
ATOM     42  H   UNL     1      49.108   5.766 -14.020  1.00  0.00     0.163 HD
BRANCH  41  43
ATOM     43  C   UNL     1      20.945  37.083 -12.787  1.00  0.00     0.021 C 
ATOM     44  H   UNL     1      17.143  -4.449 -18.796  1.00  0.00     0.049 H 
ATOM     45  H   UNL     1      17.143  -4.449 -18.796  1.00  0.00     0.049 H 
BRANCH  43  46
ATOM     46  C   UNL     1      21.277  38.390 -12.059  1.00  0.00    -0.010 C 
ATOM     47  H   UNL     1       3.418  -0.678 -19.294  1.00  0.00     0.033 H 
ATOM     48  H   UNL     1       3.418  -0.678 -19.294  1.00  0.00     0.033 H 
BRANCH  46  49
ATOM     49  C   UNL     1      20.148  39.391 -12.008  1.00  0.00    -0.043 A 
ATOM     50  C   UNL     1      20.412  40.768 -11.932  1.00  0.00    -0.059 A 
ATOM     51  C   UNL     1      18.817  38.960 -12.017  1.00  0.00    -0.023 A 
ATOM     52  C   UNL     1      19.366  41.692 -11.883  1.00  0.00    -0.059 A 
ATOM     53  H   UNL     1      33.232  34.680 -53.783  1.00  0.00     0.063 H 
ATOM     54  C   UNL     1      17.783  39.889 -11.968  1.00  0.00     0.123 A 
ATOM     55  H   UNL     1      33.232  34.680 -53.783  1.00  0.00     0.066 H 
ATOM     56  C   UNL     1      18.046  41.251 -11.904  1.00  0.00    -0.026 A 
ATOM     57  H   UNL     1      33.232  34.680 -53.783  1.00  0.00     0.062 H 
ATOM     58  F   UNL     1      16.510  39.469 -11.996  1.00  0.00    -0.207 F 
ATOM     59  H   UNL     1      33.232  34.680 -53.783  1.00  0.00     0.065 H 
ENDBRANCH  46  49
ENDBRANCH  43  46
ENDBRANCH  41  43
ENDBRANCH   1  39
BRANCH   1  60
ATOM     60  C   UNL     1      22.622  33.498 -10.930  1.00  0.00     0.003 A 
ATOM     61  C   UNL     1      23.362  34.632 -10.575  1.00  0.00    -0.053 A 
ATOM     62  C   UNL     1      23.279  32.269 -10.826  1.00  0.00     0.033 A 
ATOM     63  C   UNL     1      24.695  34.502 -10.185  1.00  0.00    -0.043 A 
ATOM     64  H   UNL     1      39.390  23.283  22.153  1.00  0.00     0.063 H 
ATOM     65  N   UNL     1      24.564  32.110 -10.433  1.00  0.00    -0.264 NA
ATOM     66  H   UNL     1      39.390  23.283  22.153  1.00  0.00     0.084 H 
ATOM     67  C   UNL     1      25.242  33.232 -10.129  1.00  0.00     0.027 A 
ATOM     68  H   UNL     1      39.390  23.283  22.153  1.00  0.00     0.064 H 
ATOM     69  H   UNL     1      39.390  23.283  22.153  1.00  0.00     0.084 H 
ENDBRANCH   1  60
TORSDOF 13
ENDMDL
