MODEL 1
REMARK VINA RESULT:    -7.552      0.000      0.000
REMARK INTER + INTRA:         -15.417
REMARK INTER:                 -12.630
REMARK INTRA:                  -2.788
REMARK UNBOUND:                -2.788
REMARK SMILES CC(C)(C)c1ccc(N(C(=O)c2ccncc2)[C@@H](C(=O)NCCc2cccc(F)c2)c2cccnc2)cc1
REMARK SMILES IDX 18 1 9 3 8 4 5 5 6 6 38 7 7 8 37 10 2 14 1 15 3 19 4 23
REMARK SMILES IDX 10 27 11 28 12 29 13 30 17 31 14 32 16 34 15 36 19 39 20 40
REMARK SMILES IDX 21 41 22 43 23 46 24 49 25 50 30 51 26 52 28 54 27 56 29 58
REMARK SMILES IDX 31 60 32 61 36 62 33 63 35 65 34 67
REMARK H PARENT 18 2 6 9 38 11 7 12 37 13 1 16 1 17 1 18 3 20 3 21 3 22 4 24
REMARK H PARENT 4 25 4 26 13 33 17 35 14 37 16 38 21 42 22 44 22 45 23 47
REMARK H PARENT 23 48 25 53 30 55 26 57 27 59 32 64 36 66 33 68 34 69
REMARK Flexibility Score: inf
ROOT
ATOM      1  C   UNL     1      18.264  33.325 -10.515  1.00  0.00     0.142 C 
ATOM      2  H   UNL     1      25.685  43.709  26.846  1.00  0.00     0.069 H 
ENDROOT
BRANCH   1   3
ATOM      3  N   UNL     1      19.141  33.835 -11.605  1.00  0.00    -0.292 N 
BRANCH   3   4
ATOM      4  C   UNL     1      19.104  35.248 -11.834  1.00  0.00     0.045 A 
ATOM      5  C   UNL     1      19.048  38.049 -12.357  1.00  0.00    -0.042 A 
ATOM      6  C   UNL     1      20.216  37.292 -12.550  1.00  0.00    -0.056 A 
ATOM      7  C   UNL     1      17.916  37.369 -11.882  1.00  0.00    -0.056 A 
ATOM      8  C   UNL     1      20.243  35.914 -12.298  1.00  0.00    -0.038 A 
ATOM      9  H   UNL     1       6.560  38.527 -49.533  1.00  0.00     0.063 H 
ATOM     10  C   UNL     1      17.941  35.990 -11.626  1.00  0.00    -0.038 A 
ATOM     11  H   UNL     1       6.560  38.527 -49.533  1.00  0.00     0.063 H 
ATOM     12  H   UNL     1       6.560  38.527 -49.533  1.00  0.00     0.064 H 
ATOM     13  H   UNL     1       6.560  38.527 -49.533  1.00  0.00     0.064 H 
BRANCH   5  14
ATOM     14  C   UNL     1      19.048  39.560 -12.659  1.00  0.00    -0.013 C 
BRANCH  14  15
ATOM     15  C   UNL     1      19.167  39.781 -14.181  1.00  0.00    -0.056 C 
ATOM     16  H   UNL     1      -1.121  50.784  18.709  1.00  0.00     0.024 H 
ATOM     17  H   UNL     1      -1.121  50.784  18.709  1.00  0.00     0.024 H 
ATOM     18  H   UNL     1      -1.121  50.784  18.709  1.00  0.00     0.024 H 
ENDBRANCH  14  15
BRANCH  14  19
ATOM     19  C   UNL     1      20.204  40.334 -11.987  1.00  0.00    -0.056 C 
ATOM     20  H   UNL     1      20.244  70.462 -36.331  1.00  0.00     0.024 H 
ATOM     21  H   UNL     1      20.244  70.462 -36.331  1.00  0.00     0.024 H 
ATOM     22  H   UNL     1      20.244  70.462 -36.331  1.00  0.00     0.024 H 
ENDBRANCH  14  19
BRANCH  14  23
ATOM     23  C   UNL     1      17.728  40.194 -12.161  1.00  0.00    -0.056 C 
ATOM     24  H   UNL     1     -19.009  33.009  -7.609  1.00  0.00     0.024 H 
ATOM     25  H   UNL     1     -19.009  33.009  -7.609  1.00  0.00     0.024 H 
ATOM     26  H   UNL     1     -19.009  33.009  -7.609  1.00  0.00     0.024 H 
ENDBRANCH  14  23
ENDBRANCH   5  14
ENDBRANCH   3   4
BRANCH   3  27
ATOM     27  C   UNL     1      20.067  32.965 -12.195  1.00  0.00     0.259 C 
ATOM     28  O   UNL     1      21.136  32.658 -11.663  1.00  0.00    -0.269 OA
BRANCH  27  29
ATOM     29  C   UNL     1      19.761  32.282 -13.478  1.00  0.00     0.043 A 
ATOM     30  C   UNL     1      19.811  32.956 -14.696  1.00  0.00    -0.031 A 
ATOM     31  C   UNL     1      19.324  30.959 -13.436  1.00  0.00    -0.031 A 
ATOM     32  C   UNL     1      19.439  32.260 -15.836  1.00  0.00     0.028 A 
ATOM     33  H   UNL     1      53.884  31.589  11.219  1.00  0.00     0.065 H 
ATOM     34  C   UNL     1      18.979  30.350 -14.628  1.00  0.00     0.028 A 
ATOM     35  H   UNL     1      53.884  31.589  11.219  1.00  0.00     0.065 H 
ATOM     36  N   UNL     1      19.038  30.971 -15.827  1.00  0.00    -0.265 NA
ATOM     37  H   UNL     1      53.884  31.589  11.219  1.00  0.00     0.084 H 
ATOM     38  H   UNL     1      53.884  31.589  11.219  1.00  0.00     0.084 H 
ENDBRANCH  27  29
ENDBRANCH   3  27
ENDBRANCH   1   3
BRANCH   1  39
ATOM     39  C   UNL     1      17.041  32.572 -11.106  1.00  0.00     0.247 C 
ATOM     40  O   UNL     1      16.612  32.835 -12.225  1.00  0.00    -0.272 OA
ATOM     41  N   UNL     1      16.500  31.595 -10.293  1.00  0.00    -0.354 N 
ATOM     42  H   UNL     1      20.370  69.680   4.739  1.00  0.00     0.163 HD
BRANCH  41  43
ATOM     43  C   UNL     1      15.361  30.785 -10.675  1.00  0.00     0.021 C 
ATOM     44  H   UNL     1      28.827  69.548 -20.242  1.00  0.00     0.049 H 
ATOM     45  H   UNL     1      28.827  69.548 -20.242  1.00  0.00     0.049 H 
BRANCH  43  46
ATOM     46  C   UNL     1      15.353  29.408 -10.002  1.00  0.00    -0.010 C 
ATOM     47  H   UNL     1      25.904  71.058 -17.188  1.00  0.00     0.033 H 
ATOM     48  H   UNL     1      25.904  71.058 -17.188  1.00  0.00     0.033 H 
BRANCH  46  49
ATOM     49  C   UNL     1      16.603  28.590 -10.221  1.00  0.00    -0.043 A 
ATOM     50  C   UNL     1      17.239  27.950  -9.146  1.00  0.00    -0.059 A 
ATOM     51  C   UNL     1      17.159  28.473 -11.500  1.00  0.00    -0.023 A 
ATOM     52  C   UNL     1      18.397  27.196  -9.350  1.00  0.00    -0.059 A 
ATOM     53  H   UNL     1     -18.354   1.841 -11.231  1.00  0.00     0.063 H 
ATOM     54  C   UNL     1      18.312  27.720 -11.692  1.00  0.00     0.123 A 
ATOM     55  H   UNL     1     -18.354   1.841 -11.231  1.00  0.00     0.066 H 
ATOM     56  C   UNL     1      18.935  27.078 -10.629  1.00  0.00    -0.026 A 
ATOM     57  H   UNL     1     -18.354   1.841 -11.231  1.00  0.00     0.062 H 
ATOM     58  F   UNL     1      18.828  27.597 -12.923  1.00  0.00    -0.207 F 
ATOM     59  H   UNL     1     -18.354   1.841 -11.231  1.00  0.00     0.065 H 
ENDBRANCH  46  49
ENDBRANCH  43  46
ENDBRANCH  41  43
ENDBRANCH   1  39
BRANCH   1  60
ATOM     60  C   UNL     1      18.948  32.592  -9.362  1.00  0.00     0.003 A 
ATOM     61  C   UNL     1      19.187  31.213  -9.323  1.00  0.00    -0.053 A 
ATOM     62  C   UNL     1      19.448  33.340  -8.292  1.00  0.00     0.033 A 
ATOM     63  C   UNL     1      19.854  30.650  -8.235  1.00  0.00    -0.043 A 
ATOM     64  H   UNL     1      56.133  30.170   0.197  1.00  0.00     0.063 H 
ATOM     65  N   UNL     1      20.115  32.825  -7.234  1.00  0.00    -0.264 NA
ATOM     66  H   UNL     1      56.133  30.170   0.197  1.00  0.00     0.084 H 
ATOM     67  C   UNL     1      20.296  31.492  -7.228  1.00  0.00     0.027 A 
ATOM     68  H   UNL     1      56.133  30.170   0.197  1.00  0.00     0.064 H 
ATOM     69  H   UNL     1      56.133  30.170   0.197  1.00  0.00     0.084 H 
ENDBRANCH   1  60
TORSDOF 13
ENDMDL
MODEL 2
REMARK VINA RESULT:    -7.312      1.835      3.239
REMARK INTER + INTRA:         -15.016
REMARK INTER:                 -12.388
REMARK INTRA:                  -2.627
REMARK UNBOUND:                -2.788
REMARK SMILES CC(C)(C)c1ccc(N(C(=O)c2ccncc2)[C@@H](C(=O)NCCc2cccc(F)c2)c2cccnc2)cc1
REMARK SMILES IDX 18 1 9 3 8 4 5 5 6 6 38 7 7 8 37 10 2 14 1 15 3 19 4 23
REMARK SMILES IDX 10 27 11 28 12 29 13 30 17 31 14 32 16 34 15 36 19 39 20 40
REMARK SMILES IDX 21 41 22 43 23 46 24 49 25 50 30 51 26 52 28 54 27 56 29 58
REMARK SMILES IDX 31 60 32 61 36 62 33 63 35 65 34 67
REMARK H PARENT 18 2 6 9 38 11 7 12 37 13 1 16 1 17 1 18 3 20 3 21 3 22 4 24
REMARK H PARENT 4 25 4 26 13 33 17 35 14 37 16 38 21 42 22 44 22 45 23 47
REMARK H PARENT 23 48 25 53 30 55 26 57 27 59 32 64 36 66 33 68 34 69
REMARK Flexibility Score: inf
ROOT
ATOM      1  C   UNL     1      18.933  33.436 -10.101  1.00  0.00     0.142 C 
ATOM      2  H   UNL     1      13.471  42.954  27.824  1.00  0.00     0.069 H 
ENDROOT
BRANCH   1   3
ATOM      3  N   UNL     1      19.994  34.128 -10.885  1.00  0.00    -0.292 N 
BRANCH   3   4
ATOM      4  C   UNL     1      19.680  35.449 -11.339  1.00  0.00     0.045 A 
ATOM      5  C   UNL     1      19.067  38.104 -12.176  1.00  0.00    -0.042 A 
ATOM      6  C   UNL     1      18.321  37.462 -11.171  1.00  0.00    -0.056 A 
ATOM      7  C   UNL     1      20.116  37.375 -12.757  1.00  0.00    -0.056 A 
ATOM      8  C   UNL     1      18.626  36.159 -10.756  1.00  0.00    -0.038 A 
ATOM      9  H   UNL     1      42.791  59.000  11.036  1.00  0.00     0.063 H 
ATOM     10  C   UNL     1      20.420  36.069 -12.346  1.00  0.00    -0.038 A 
ATOM     11  H   UNL     1      42.791  59.000  11.036  1.00  0.00     0.063 H 
ATOM     12  H   UNL     1      42.791  59.000  11.036  1.00  0.00     0.064 H 
ATOM     13  H   UNL     1      42.791  59.000  11.036  1.00  0.00     0.064 H 
BRANCH   5  14
ATOM     14  C   UNL     1      18.716  39.543 -12.599  1.00  0.00    -0.013 C 
BRANCH  14  15
ATOM     15  C   UNL     1      18.723  39.643 -14.138  1.00  0.00    -0.056 C 
ATOM     16  H   UNL     1      12.985  60.525  19.707  1.00  0.00     0.024 H 
ATOM     17  H   UNL     1      12.985  60.525  19.707  1.00  0.00     0.024 H 
ATOM     18  H   UNL     1      12.985  60.525  19.707  1.00  0.00     0.024 H 
ENDBRANCH  14  15
BRANCH  14  19
ATOM     19  C   UNL     1      19.694  40.610 -12.060  1.00  0.00    -0.056 C 
ATOM     20  H   UNL     1      45.838  15.936   2.363  1.00  0.00     0.024 H 
ATOM     21  H   UNL     1      45.838  15.936   2.363  1.00  0.00     0.024 H 
ATOM     22  H   UNL     1      45.838  15.936   2.363  1.00  0.00     0.024 H 
ENDBRANCH  14  19
BRANCH  14  23
ATOM     23  C   UNL     1      17.308  39.915 -12.078  1.00  0.00    -0.056 C 
ATOM     24  H   UNL     1      -5.515  69.334  -6.113  1.00  0.00     0.024 H 
ATOM     25  H   UNL     1      -5.515  69.334  -6.113  1.00  0.00     0.024 H 
ATOM     26  H   UNL     1      -5.515  69.334  -6.113  1.00  0.00     0.024 H 
ENDBRANCH  14  23
ENDBRANCH   5  14
ENDBRANCH   3   4
BRANCH   3  27
ATOM     27  C   UNL     1      21.266  33.547 -10.966  1.00  0.00     0.259 C 
ATOM     28  O   UNL     1      21.569  32.708 -11.817  1.00  0.00    -0.269 OA
BRANCH  27  29
ATOM     29  C   UNL     1      22.363  33.986 -10.067  1.00  0.00     0.043 A 
ATOM     30  C   UNL     1      23.510  33.218  -9.881  1.00  0.00    -0.031 A 
ATOM     31  C   UNL     1      22.184  35.154  -9.326  1.00  0.00    -0.031 A 
ATOM     32  C   UNL     1      24.450  33.668  -8.967  1.00  0.00     0.028 A 
ATOM     33  H   UNL     1      11.519  45.928 -48.985  1.00  0.00     0.065 H 
ATOM     34  C   UNL     1      23.182  35.522  -8.443  1.00  0.00     0.028 A 
ATOM     35  H   UNL     1      11.519  45.928 -48.985  1.00  0.00     0.065 H 
ATOM     36  N   UNL     1      24.315  34.808  -8.257  1.00  0.00    -0.265 NA
ATOM     37  H   UNL     1      11.519  45.928 -48.985  1.00  0.00     0.084 H 
ATOM     38  H   UNL     1      11.519  45.928 -48.985  1.00  0.00     0.084 H 
ENDBRANCH  27  29
ENDBRANCH   3  27
ENDBRANCH   1   3
BRANCH   1  39
ATOM     39  C   UNL     1      18.070  32.535 -11.027  1.00  0.00     0.247 C 
ATOM     40  O   UNL     1      18.399  32.317 -12.189  1.00  0.00    -0.272 OA
ATOM     41  N   UNL     1      16.939  31.999 -10.443  1.00  0.00    -0.354 N 
ATOM     42  H   UNL     1      22.159  72.777  -9.302  1.00  0.00     0.163 HD
BRANCH  41  43
ATOM     43  C   UNL     1      16.016  31.132 -11.146  1.00  0.00     0.021 C 
ATOM     44  H   UNL     1      32.919  68.976 -18.734  1.00  0.00     0.049 H 
ATOM     45  H   UNL     1      32.919  68.976 -18.734  1.00  0.00     0.049 H 
BRANCH  43  46
ATOM     46  C   UNL     1      15.723  29.831 -10.391  1.00  0.00    -0.010 C 
ATOM     47  H   UNL     1      33.515  68.628 -19.102  1.00  0.00     0.033 H 
ATOM     48  H   UNL     1      33.515  68.628 -19.102  1.00  0.00     0.033 H 
BRANCH  46  49
ATOM     49  C   UNL     1      16.838  28.814 -10.426  1.00  0.00    -0.043 A 
ATOM     50  C   UNL     1      17.209  28.114  -9.267  1.00  0.00    -0.059 A 
ATOM     51  C   UNL     1      17.535  28.566 -11.614  1.00  0.00    -0.023 A 
ATOM     52  C   UNL     1      18.243  27.176  -9.301  1.00  0.00    -0.059 A 
ATOM     53  H   UNL     1     -21.601   8.085 -16.016  1.00  0.00     0.063 H 
ATOM     54  C   UNL     1      18.563  27.630 -11.637  1.00  0.00     0.123 A 
ATOM     55  H   UNL     1     -21.601   8.085 -16.016  1.00  0.00     0.066 H 
ATOM     56  C   UNL     1      18.921  26.930 -10.492  1.00  0.00    -0.026 A 
ATOM     57  H   UNL     1     -21.601   8.085 -16.016  1.00  0.00     0.062 H 
ATOM     58  F   UNL     1      19.213  27.385 -12.783  1.00  0.00    -0.207 F 
ATOM     59  H   UNL     1     -21.601   8.085 -16.016  1.00  0.00     0.065 H 
ENDBRANCH  46  49
ENDBRANCH  43  46
ENDBRANCH  41  43
ENDBRANCH   1  39
BRANCH   1  60
ATOM     60  C   UNL     1      19.362  32.759  -8.800  1.00  0.00     0.003 A 
ATOM     61  C   UNL     1      19.803  31.435  -8.698  1.00  0.00    -0.053 A 
ATOM     62  C   UNL     1      19.400  33.519  -7.628  1.00  0.00     0.033 A 
ATOM     63  C   UNL     1      20.208  30.927  -7.464  1.00  0.00    -0.043 A 
ATOM     64  H   UNL     1      52.031  35.678  11.305  1.00  0.00     0.063 H 
ATOM     65  N   UNL     1      19.806  33.060  -6.422  1.00  0.00    -0.264 NA
ATOM     66  H   UNL     1      52.031  35.678  11.305  1.00  0.00     0.084 H 
ATOM     67  C   UNL     1      20.194  31.773  -6.368  1.00  0.00     0.027 A 
ATOM     68  H   UNL     1      52.031  35.678  11.305  1.00  0.00     0.064 H 
ATOM     69  H   UNL     1      52.031  35.678  11.305  1.00  0.00     0.084 H 
ENDBRANCH   1  60
TORSDOF 13
ENDMDL
MODEL 3
REMARK VINA RESULT:    -7.186      1.716      2.553
REMARK INTER + INTRA:         -14.805
REMARK INTER:                 -11.530
REMARK INTRA:                  -3.275
REMARK UNBOUND:                -2.788
REMARK SMILES CC(C)(C)c1ccc(N(C(=O)c2ccncc2)[C@@H](C(=O)NCCc2cccc(F)c2)c2cccnc2)cc1
REMARK SMILES IDX 18 1 9 3 8 4 5 5 6 6 38 7 7 8 37 10 2 14 1 15 3 19 4 23
REMARK SMILES IDX 10 27 11 28 12 29 13 30 17 31 14 32 16 34 15 36 19 39 20 40
REMARK SMILES IDX 21 41 22 43 23 46 24 49 25 50 30 51 26 52 28 54 27 56 29 58
REMARK SMILES IDX 31 60 32 61 36 62 33 63 35 65 34 67
REMARK H PARENT 18 2 6 9 38 11 7 12 37 13 1 16 1 17 1 18 3 20 3 21 3 22 4 24
REMARK H PARENT 4 25 4 26 13 33 17 35 14 37 16 38 21 42 22 44 22 45 23 47
REMARK H PARENT 23 48 25 53 30 55 26 57 27 59 32 64 36 66 33 68 34 69
REMARK Flexibility Score: inf
ROOT
ATOM      1  C   UNL     1      19.051  32.270  -9.318  1.00  0.00     0.142 C 
ATOM      2  H   UNL     1      12.433  58.136  19.767  1.00  0.00     0.069 H 
ENDROOT
BRANCH   1   3
ATOM      3  N   UNL     1      19.626  32.747 -10.606  1.00  0.00    -0.292 N 
BRANCH   3   4
ATOM      4  C   UNL     1      19.405  34.126 -10.921  1.00  0.00     0.045 A 
ATOM      5  C   UNL     1      18.917  36.875 -11.497  1.00  0.00    -0.042 A 
ATOM      6  C   UNL     1      17.882  35.924 -11.532  1.00  0.00    -0.056 A 
ATOM      7  C   UNL     1      20.202  36.408 -11.179  1.00  0.00    -0.056 A 
ATOM      8  C   UNL     1      18.120  34.574 -11.245  1.00  0.00    -0.038 A 
ATOM      9  H   UNL     1      12.190  51.021  24.460  1.00  0.00     0.063 H 
ATOM     10  C   UNL     1      20.444  35.056 -10.895  1.00  0.00    -0.038 A 
ATOM     11  H   UNL     1      12.190  51.021  24.460  1.00  0.00     0.063 H 
ATOM     12  H   UNL     1      12.190  51.021  24.460  1.00  0.00     0.064 H 
ATOM     13  H   UNL     1      12.190  51.021  24.460  1.00  0.00     0.064 H 
BRANCH   5  14
ATOM     14  C   UNL     1      18.619  38.354 -11.803  1.00  0.00    -0.013 C 
BRANCH  14  15
ATOM     15  C   UNL     1      19.942  39.102 -12.071  1.00  0.00    -0.056 C 
ATOM     16  H   UNL     1      -2.118   7.302 -22.871  1.00  0.00     0.024 H 
ATOM     17  H   UNL     1      -2.118   7.302 -22.871  1.00  0.00     0.024 H 
ATOM     18  H   UNL     1      -2.118   7.302 -22.871  1.00  0.00     0.024 H 
ENDBRANCH  14  15
BRANCH  14  19
ATOM     19  C   UNL     1      17.891  39.096 -10.660  1.00  0.00    -0.056 C 
ATOM     20  H   UNL     1      37.329  72.451 -13.815  1.00  0.00     0.024 H 
ATOM     21  H   UNL     1      37.329  72.451 -13.815  1.00  0.00     0.024 H 
ATOM     22  H   UNL     1      37.329  72.451 -13.815  1.00  0.00     0.024 H 
ENDBRANCH  14  19
BRANCH  14  23
ATOM     23  C   UNL     1      17.719  38.460 -13.057  1.00  0.00    -0.056 C 
ATOM     24  H   UNL     1      -9.247  20.233 -32.098  1.00  0.00     0.024 H 
ATOM     25  H   UNL     1      -9.247  20.233 -32.098  1.00  0.00     0.024 H 
ATOM     26  H   UNL     1      -9.247  20.233 -32.098  1.00  0.00     0.024 H 
ENDBRANCH  14  23
ENDBRANCH   5  14
ENDBRANCH   3   4
BRANCH   3  27
ATOM     27  C   UNL     1      20.487  31.903 -11.318  1.00  0.00     0.259 C 
ATOM     28  O   UNL     1      21.508  31.415 -10.829  1.00  0.00    -0.269 OA
BRANCH  27  29
ATOM     29  C   UNL     1      20.161  31.472 -12.701  1.00  0.00     0.043 A 
ATOM     30  C   UNL     1      21.110  30.870 -13.524  1.00  0.00    -0.031 A 
ATOM     31  C   UNL     1      18.895  31.769 -13.206  1.00  0.00    -0.031 A 
ATOM     32  C   UNL     1      20.739  30.567 -14.825  1.00  0.00     0.028 A 
ATOM     33  H   UNL     1      11.441  14.370  24.800  1.00  0.00     0.065 H 
ATOM     34  C   UNL     1      18.620  31.422 -14.515  1.00  0.00     0.028 A 
ATOM     35  H   UNL     1      11.441  14.370  24.800  1.00  0.00     0.065 H 
ATOM     36  N   UNL     1      19.513  30.818 -15.331  1.00  0.00    -0.265 NA
ATOM     37  H   UNL     1      11.441  14.370  24.800  1.00  0.00     0.084 H 
ATOM     38  H   UNL     1      11.441  14.370  24.800  1.00  0.00     0.084 H 
ENDBRANCH  27  29
ENDBRANCH   3  27
ENDBRANCH   1   3
BRANCH   1  39
ATOM     39  C   UNL     1      18.631  30.778  -9.426  1.00  0.00     0.247 C 
ATOM     40  O   UNL     1      19.276  29.894  -8.872  1.00  0.00    -0.272 OA
ATOM     41  N   UNL     1      17.490  30.538 -10.167  1.00  0.00    -0.354 N 
ATOM     42  H   UNL     1      48.203  51.527 -27.704  1.00  0.00     0.163 HD
BRANCH  41  43
ATOM     43  C   UNL     1      16.942  29.213 -10.375  1.00  0.00     0.021 C 
ATOM     44  H   UNL     1      29.195  51.362  23.311  1.00  0.00     0.049 H 
ATOM     45  H   UNL     1      29.195  51.362  23.311  1.00  0.00     0.049 H 
BRANCH  43  46
ATOM     46  C   UNL     1      16.679  28.900 -11.852  1.00  0.00    -0.010 C 
ATOM     47  H   UNL     1      22.905  21.861  30.684  1.00  0.00     0.033 H 
ATOM     48  H   UNL     1      22.905  21.861  30.684  1.00  0.00     0.033 H 
BRANCH  46  49
ATOM     49  C   UNL     1      17.839  28.265 -12.581  1.00  0.00    -0.043 A 
ATOM     50  C   UNL     1      17.743  27.951 -13.946  1.00  0.00    -0.059 A 
ATOM     51  C   UNL     1      19.023  27.961 -11.900  1.00  0.00    -0.023 A 
ATOM     52  C   UNL     1      18.816  27.361 -14.618  1.00  0.00    -0.059 A 
ATOM     53  H   UNL     1      19.592  71.899 -18.193  1.00  0.00     0.063 H 
ATOM     54  C   UNL     1      20.085  27.374 -12.579  1.00  0.00     0.123 A 
ATOM     55  H   UNL     1      19.592  71.899 -18.193  1.00  0.00     0.066 H 
ATOM     56  C   UNL     1      19.994  27.073 -13.932  1.00  0.00    -0.026 A 
ATOM     57  H   UNL     1      19.592  71.899 -18.193  1.00  0.00     0.062 H 
ATOM     58  F   UNL     1      21.223  27.102 -11.925  1.00  0.00    -0.207 F 
ATOM     59  H   UNL     1      19.592  71.899 -18.193  1.00  0.00     0.065 H 
ENDBRANCH  46  49
ENDBRANCH  43  46
ENDBRANCH  41  43
ENDBRANCH   1  39
BRANCH   1  60
ATOM     60  C   UNL     1      19.827  32.606  -8.045  1.00  0.00     0.003 A 
ATOM     61  C   UNL     1      21.209  32.443  -7.888  1.00  0.00    -0.053 A 
ATOM     62  C   UNL     1      19.144  33.191  -6.975  1.00  0.00     0.033 A 
ATOM     63  C   UNL     1      21.824  32.817  -6.693  1.00  0.00    -0.043 A 
ATOM     64  H   UNL     1      31.338  66.513   6.018  1.00  0.00     0.063 H 
ATOM     65  N   UNL     1      19.717  33.581  -5.813  1.00  0.00    -0.264 NA
ATOM     66  H   UNL     1      31.338  66.513   6.018  1.00  0.00     0.084 H 
ATOM     67  C   UNL     1      21.042  33.378  -5.698  1.00  0.00     0.027 A 
ATOM     68  H   UNL     1      31.338  66.513   6.018  1.00  0.00     0.064 H 
ATOM     69  H   UNL     1      31.338  66.513   6.018  1.00  0.00     0.084 H 
ENDBRANCH   1  60
TORSDOF 13
ENDMDL
MODEL 4
REMARK VINA RESULT:    -7.175      1.709      5.013
REMARK INTER + INTRA:         -14.787
REMARK INTER:                 -12.050
REMARK INTRA:                  -2.737
REMARK UNBOUND:                -2.788
REMARK SMILES CC(C)(C)c1ccc(N(C(=O)c2ccncc2)[C@@H](C(=O)NCCc2cccc(F)c2)c2cccnc2)cc1
REMARK SMILES IDX 18 1 9 3 8 4 5 5 6 6 38 7 7 8 37 10 2 14 1 15 3 19 4 23
REMARK SMILES IDX 10 27 11 28 12 29 13 30 17 31 14 32 16 34 15 36 19 39 20 40
REMARK SMILES IDX 21 41 22 43 23 46 24 49 25 50 30 51 26 52 28 54 27 56 29 58
REMARK SMILES IDX 31 60 32 61 36 62 33 63 35 65 34 67
REMARK H PARENT 18 2 6 9 38 11 7 12 37 13 1 16 1 17 1 18 3 20 3 21 3 22 4 24
REMARK H PARENT 4 25 4 26 13 33 17 35 14 37 16 38 21 42 22 44 22 45 23 47
REMARK H PARENT 23 48 25 53 30 55 26 57 27 59 32 64 36 66 33 68 34 69
REMARK Flexibility Score: inf
ROOT
ATOM      1  C   UNL     1      18.708  33.630  -9.724  1.00  0.00     0.142 C 
ATOM      2  H   UNL     1      24.803  40.268  28.715  1.00  0.00     0.069 H 
ENDROOT
BRANCH   1   3
ATOM      3  N   UNL     1      19.775  33.973 -10.704  1.00  0.00    -0.292 N 
BRANCH   3   4
ATOM      4  C   UNL     1      19.930  33.072 -11.806  1.00  0.00     0.045 A 
ATOM      5  C   UNL     1      20.207  31.226 -13.961  1.00  0.00    -0.042 A 
ATOM      6  C   UNL     1      20.778  30.972 -12.701  1.00  0.00    -0.056 A 
ATOM      7  C   UNL     1      19.507  32.434 -14.114  1.00  0.00    -0.056 A 
ATOM      8  C   UNL     1      20.638  31.877 -11.641  1.00  0.00    -0.038 A 
ATOM      9  H   UNL     1     -12.324   9.734  -9.709  1.00  0.00     0.063 H 
ATOM     10  C   UNL     1      19.369  33.342 -13.054  1.00  0.00    -0.038 A 
ATOM     11  H   UNL     1     -12.324   9.734  -9.709  1.00  0.00     0.063 H 
ATOM     12  H   UNL     1     -12.324   9.734  -9.709  1.00  0.00     0.064 H 
ATOM     13  H   UNL     1     -12.324   9.734  -9.709  1.00  0.00     0.064 H 
BRANCH   5  14
ATOM     14  C   UNL     1      20.366  30.204 -15.102  1.00  0.00    -0.013 C 
BRANCH  14  15
ATOM     15  C   UNL     1      21.059  30.878 -16.304  1.00  0.00    -0.056 C 
ATOM     16  H   UNL     1       5.148  -3.608  -3.188  1.00  0.00     0.024 H 
ATOM     17  H   UNL     1       5.148  -3.608  -3.188  1.00  0.00     0.024 H 
ATOM     18  H   UNL     1       5.148  -3.608  -3.188  1.00  0.00     0.024 H 
ENDBRANCH  14  15
BRANCH  14  19
ATOM     19  C   UNL     1      19.030  29.616 -15.607  1.00  0.00    -0.056 C 
ATOM     20  H   UNL     1      -4.203  53.145   4.566  1.00  0.00     0.024 H 
ATOM     21  H   UNL     1      -4.203  53.145   4.566  1.00  0.00     0.024 H 
ATOM     22  H   UNL     1      -4.203  53.145   4.566  1.00  0.00     0.024 H 
ENDBRANCH  14  19
BRANCH  14  23
ATOM     23  C   UNL     1      21.233  29.015 -14.624  1.00  0.00    -0.056 C 
ATOM     24  H   UNL     1      47.425   4.553 -26.350  1.00  0.00     0.024 H 
ATOM     25  H   UNL     1      47.425   4.553 -26.350  1.00  0.00     0.024 H 
ATOM     26  H   UNL     1      47.425   4.553 -26.350  1.00  0.00     0.024 H 
ENDBRANCH  14  23
ENDBRANCH   5  14
ENDBRANCH   3   4
BRANCH   3  27
ATOM     27  C   UNL     1      20.414  35.215 -10.605  1.00  0.00     0.259 C 
ATOM     28  O   UNL     1      21.470  35.381  -9.991  1.00  0.00    -0.269 OA
BRANCH  27  29
ATOM     29  C   UNL     1      19.889  36.402 -11.325  1.00  0.00     0.043 A 
ATOM     30  C   UNL     1      18.601  36.885 -11.102  1.00  0.00    -0.031 A 
ATOM     31  C   UNL     1      20.683  36.981 -12.316  1.00  0.00    -0.031 A 
ATOM     32  C   UNL     1      18.168  37.953 -11.872  1.00  0.00     0.028 A 
ATOM     33  H   UNL     1      46.581  32.795  21.067  1.00  0.00     0.065 H 
ATOM     34  C   UNL     1      20.161  38.045 -13.027  1.00  0.00     0.028 A 
ATOM     35  H   UNL     1      46.581  32.795  21.067  1.00  0.00     0.065 H 
ATOM     36  N   UNL     1      18.925  38.549 -12.817  1.00  0.00    -0.265 NA
ATOM     37  H   UNL     1      46.581  32.795  21.067  1.00  0.00     0.084 H 
ATOM     38  H   UNL     1      46.581  32.795  21.067  1.00  0.00     0.084 H 
ENDBRANCH  27  29
ENDBRANCH   3  27
ENDBRANCH   1   3
BRANCH   1  39
ATOM     39  C   UNL     1      17.405  33.210 -10.458  1.00  0.00     0.247 C 
ATOM     40  O   UNL     1      16.739  34.025 -11.088  1.00  0.00    -0.272 OA
ATOM     41  N   UNL     1      17.077  31.872 -10.360  1.00  0.00    -0.354 N 
ATOM     42  H   UNL     1      23.132  53.188  24.287  1.00  0.00     0.163 HD
BRANCH  41  43
ATOM     43  C   UNL     1      15.903  31.294 -10.982  1.00  0.00     0.021 C 
ATOM     44  H   UNL     1      34.581  69.049 -12.053  1.00  0.00     0.049 H 
ATOM     45  H   UNL     1      34.581  69.049 -12.053  1.00  0.00     0.049 H 
BRANCH  43  46
ATOM     46  C   UNL     1      15.667  29.835 -10.576  1.00  0.00    -0.010 C 
ATOM     47  H   UNL     1      31.102  70.530  -8.743  1.00  0.00     0.033 H 
ATOM     48  H   UNL     1      31.102  70.530  -8.743  1.00  0.00     0.033 H 
BRANCH  46  49
ATOM     49  C   UNL     1      16.851  28.921 -10.788  1.00  0.00    -0.043 A 
ATOM     50  C   UNL     1      17.495  28.858 -12.034  1.00  0.00    -0.059 A 
ATOM     51  C   UNL     1      17.312  28.107  -9.748  1.00  0.00    -0.023 A 
ATOM     52  C   UNL     1      18.588  28.010 -12.228  1.00  0.00    -0.059 A 
ATOM     53  H   UNL     1      31.502  69.085  -0.264  1.00  0.00     0.063 H 
ATOM     54  C   UNL     1      18.401  27.266  -9.952  1.00  0.00     0.123 A 
ATOM     55  H   UNL     1      31.502  69.085  -0.264  1.00  0.00     0.066 H 
ATOM     56  C   UNL     1      19.045  27.213 -11.182  1.00  0.00    -0.026 A 
ATOM     57  H   UNL     1      31.502  69.085  -0.264  1.00  0.00     0.062 H 
ATOM     58  F   UNL     1      18.849  26.502  -8.946  1.00  0.00    -0.207 F 
ATOM     59  H   UNL     1      31.502  69.085  -0.264  1.00  0.00     0.065 H 
ENDBRANCH  46  49
ENDBRANCH  43  46
ENDBRANCH  41  43
ENDBRANCH   1  39
BRANCH   1  60
ATOM     60  C   UNL     1      19.097  32.706  -8.571  1.00  0.00     0.003 A 
ATOM     61  C   UNL     1      19.498  31.373  -8.718  1.00  0.00    -0.053 A 
ATOM     62  C   UNL     1      19.138  33.228  -7.275  1.00  0.00     0.033 A 
ATOM     63  C   UNL     1      19.868  30.628  -7.599  1.00  0.00    -0.043 A 
ATOM     64  H   UNL     1      51.510  30.736  12.057  1.00  0.00     0.063 H 
ATOM     65  N   UNL     1      19.511  32.536  -6.174  1.00  0.00    -0.264 NA
ATOM     66  H   UNL     1      51.510  30.736  12.057  1.00  0.00     0.084 H 
ATOM     67  C   UNL     1      19.861  31.250  -6.362  1.00  0.00     0.027 A 
ATOM     68  H   UNL     1      51.510  30.736  12.057  1.00  0.00     0.064 H 
ATOM     69  H   UNL     1      51.510  30.736  12.057  1.00  0.00     0.084 H 
ENDBRANCH   1  60
TORSDOF 13
ENDMDL
MODEL 5
REMARK VINA RESULT:    -7.171      2.287      5.064
REMARK INTER + INTRA:         -14.779
REMARK INTER:                 -12.149
REMARK INTRA:                  -2.630
REMARK UNBOUND:                -2.788
REMARK SMILES CC(C)(C)c1ccc(N(C(=O)c2ccncc2)[C@@H](C(=O)NCCc2cccc(F)c2)c2cccnc2)cc1
REMARK SMILES IDX 18 1 9 3 8 4 5 5 6 6 38 7 7 8 37 10 2 14 1 15 3 19 4 23
REMARK SMILES IDX 10 27 11 28 12 29 13 30 17 31 14 32 16 34 15 36 19 39 20 40
REMARK SMILES IDX 21 41 22 43 23 46 24 49 25 50 30 51 26 52 28 54 27 56 29 58
REMARK SMILES IDX 31 60 32 61 36 62 33 63 35 65 34 67
REMARK H PARENT 18 2 6 9 38 11 7 12 37 13 1 16 1 17 1 18 3 20 3 21 3 22 4 24
REMARK H PARENT 4 25 4 26 13 33 17 35 14 37 16 38 21 42 22 44 22 45 23 47
REMARK H PARENT 23 48 25 53 30 55 26 57 27 59 32 64 36 66 33 68 34 69
REMARK Flexibility Score: inf
ROOT
ATOM      1  C   UNL     1      21.086  33.941 -11.283  1.00  0.00     0.142 C 
ATOM      2  H   UNL     1      18.580  17.341 -47.017  1.00  0.00     0.069 H 
ENDROOT
BRANCH   1   3
ATOM      3  N   UNL     1      19.915  34.680 -10.735  1.00  0.00    -0.292 N 
BRANCH   3   4
ATOM      4  C   UNL     1      19.660  35.968 -11.305  1.00  0.00     0.045 A 
ATOM      5  C   UNL     1      19.159  38.562 -12.375  1.00  0.00    -0.042 A 
ATOM      6  C   UNL     1      18.332  38.007 -11.382  1.00  0.00    -0.056 A 
ATOM      7  C   UNL     1      20.232  37.777 -12.825  1.00  0.00    -0.056 A 
ATOM      8  C   UNL     1      18.581  36.734 -10.853  1.00  0.00    -0.038 A 
ATOM      9  H   UNL     1      41.598  60.780  10.886  1.00  0.00     0.063 H 
ATOM     10  C   UNL     1      20.481  36.501 -12.299  1.00  0.00    -0.038 A 
ATOM     11  H   UNL     1      41.598  60.780  10.886  1.00  0.00     0.063 H 
ATOM     12  H   UNL     1      41.598  60.780  10.886  1.00  0.00     0.064 H 
ATOM     13  H   UNL     1      41.598  60.780  10.886  1.00  0.00     0.064 H 
BRANCH   5  14
ATOM     14  C   UNL     1      18.867  39.970 -12.926  1.00  0.00    -0.013 C 
BRANCH  14  15
ATOM     15  C   UNL     1      19.883  40.973 -12.340  1.00  0.00    -0.056 C 
ATOM     16  H   UNL     1      -9.492  15.263  -2.822  1.00  0.00     0.024 H 
ATOM     17  H   UNL     1      -9.492  15.263  -2.822  1.00  0.00     0.024 H 
ATOM     18  H   UNL     1      -9.492  15.263  -2.822  1.00  0.00     0.024 H 
ENDBRANCH  14  15
BRANCH  14  19
ATOM     19  C   UNL     1      17.453  40.494 -12.589  1.00  0.00    -0.056 C 
ATOM     20  H   UNL     1      28.766  73.070   5.051  1.00  0.00     0.024 H 
ATOM     21  H   UNL     1      28.766  73.070   5.051  1.00  0.00     0.024 H 
ATOM     22  H   UNL     1      28.766  73.070   5.051  1.00  0.00     0.024 H 
ENDBRANCH  14  19
BRANCH  14  23
ATOM     23  C   UNL     1      18.995  39.969 -14.467  1.00  0.00    -0.056 C 
ATOM     24  H   UNL     1      30.922  18.960 -43.422  1.00  0.00     0.024 H 
ATOM     25  H   UNL     1      30.922  18.960 -43.422  1.00  0.00     0.024 H 
ATOM     26  H   UNL     1      30.922  18.960 -43.422  1.00  0.00     0.024 H 
ENDBRANCH  14  23
ENDBRANCH   5  14
ENDBRANCH   3   4
BRANCH   3  27
ATOM     27  C   UNL     1      19.043  34.017  -9.861  1.00  0.00     0.259 C 
ATOM     28  O   UNL     1      19.092  34.146  -8.636  1.00  0.00    -0.269 OA
BRANCH  27  29
ATOM     29  C   UNL     1      17.936  33.177 -10.382  1.00  0.00     0.043 A 
ATOM     30  C   UNL     1      16.927  33.707 -11.183  1.00  0.00    -0.031 A 
ATOM     31  C   UNL     1      17.866  31.845  -9.972  1.00  0.00    -0.031 A 
ATOM     32  C   UNL     1      15.892  32.866 -11.562  1.00  0.00     0.028 A 
ATOM     33  H   UNL     1      58.132  37.135 -22.355  1.00  0.00     0.065 H 
ATOM     34  C   UNL     1      16.796  31.086 -10.408  1.00  0.00     0.028 A 
ATOM     35  H   UNL     1      58.132  37.135 -22.355  1.00  0.00     0.065 H 
ATOM     36  N   UNL     1      15.815  31.567 -11.203  1.00  0.00    -0.265 NA
ATOM     37  H   UNL     1      58.132  37.135 -22.355  1.00  0.00     0.084 H 
ATOM     38  H   UNL     1      58.132  37.135 -22.355  1.00  0.00     0.084 H 
ENDBRANCH  27  29
ENDBRANCH   3  27
ENDBRANCH   1   3
BRANCH   1  39
ATOM     39  C   UNL     1      22.325  34.120 -10.363  1.00  0.00     0.247 C 
ATOM     40  O   UNL     1      23.452  33.833 -10.752  1.00  0.00    -0.272 OA
ATOM     41  N   UNL     1      22.059  34.633  -9.109  1.00  0.00    -0.354 N 
ATOM     42  H   UNL     1       1.789   0.969 -21.244  1.00  0.00     0.163 HD
BRANCH  41  43
ATOM     43  C   UNL     1      23.086  34.874  -8.115  1.00  0.00     0.021 C 
ATOM     44  H   UNL     1       6.854  57.018 -40.078  1.00  0.00     0.049 H 
ATOM     45  H   UNL     1       6.854  57.018 -40.078  1.00  0.00     0.049 H 
BRANCH  43  46
ATOM     46  C   UNL     1      23.289  33.689  -7.164  1.00  0.00    -0.010 C 
ATOM     47  H   UNL     1      14.177  55.163 -43.954  1.00  0.00     0.033 H 
ATOM     48  H   UNL     1      14.177  55.163 -43.954  1.00  0.00     0.033 H 
BRANCH  46  49
ATOM     49  C   UNL     1      22.016  33.008  -6.722  1.00  0.00    -0.043 A 
ATOM     50  C   UNL     1      21.343  33.428  -5.564  1.00  0.00    -0.059 A 
ATOM     51  C   UNL     1      21.497  31.932  -7.450  1.00  0.00    -0.023 A 
ATOM     52  C   UNL     1      20.167  32.795  -5.154  1.00  0.00    -0.059 A 
ATOM     53  H   UNL     1      11.679  68.317 -30.907  1.00  0.00     0.063 H 
ATOM     54  C   UNL     1      20.325  31.309  -7.034  1.00  0.00     0.123 A 
ATOM     55  H   UNL     1      11.679  68.317 -30.907  1.00  0.00     0.066 H 
ATOM     56  C   UNL     1      19.654  31.732  -5.894  1.00  0.00    -0.026 A 
ATOM     57  H   UNL     1      11.679  68.317 -30.907  1.00  0.00     0.062 H 
ATOM     58  F   UNL     1      19.824  30.290  -7.747  1.00  0.00    -0.207 F 
ATOM     59  H   UNL     1      11.679  68.317 -30.907  1.00  0.00     0.065 H 
ENDBRANCH  46  49
ENDBRANCH  43  46
ENDBRANCH  41  43
ENDBRANCH   1  39
BRANCH   1  60
ATOM     60  C   UNL     1      20.848  32.500 -11.732  1.00  0.00     0.003 A 
ATOM     61  C   UNL     1      21.200  31.366 -10.991  1.00  0.00    -0.053 A 
ATOM     62  C   UNL     1      20.163  32.273 -12.929  1.00  0.00     0.033 A 
ATOM     63  C   UNL     1      20.903  30.093 -11.478  1.00  0.00    -0.043 A 
ATOM     64  H   UNL     1     -11.277  11.336 -11.900  1.00  0.00     0.063 H 
ATOM     65  N   UNL     1      19.844  31.052 -13.417  1.00  0.00    -0.264 NA
ATOM     66  H   UNL     1     -11.277  11.336 -11.900  1.00  0.00     0.084 H 
ATOM     67  C   UNL     1      20.228  29.992 -12.683  1.00  0.00     0.027 A 
ATOM     68  H   UNL     1     -11.277  11.336 -11.900  1.00  0.00     0.064 H 
ATOM     69  H   UNL     1     -11.277  11.336 -11.900  1.00  0.00     0.084 H 
ENDBRANCH   1  60
TORSDOF 13
ENDMDL
