MODEL 1
REMARK VINA RESULT:    -5.279      0.000      0.000
REMARK INTER + INTRA:          -8.381
REMARK INTER:                  -7.439
REMARK INTRA:                  -0.943
REMARK UNBOUND:                -0.943
REMARK SMILES CC(C)N(CCc1c[nH]c2ccccc12)C(C)C
REMARK SMILES IDX 5 1 4 4 2 5 1 7 3 11 16 15 17 17 18 21 6 25 7 28 8 29 15 30
REMARK SMILES IDX 9 31 10 33 14 34 11 36 13 37 12 39
REMARK H PARENT 5 2 5 3 2 6 1 8 1 9 1 10 3 12 3 13 3 14 16 16 17 18 17 19
REMARK H PARENT 17 20 18 22 18 23 18 24 6 26 6 27 8 32 9 35 14 38 11 40 13 41
REMARK H PARENT 12 42
REMARK Flexibility Score: inf
ROOT
ATOM      1  C   UNL     1      18.193  29.846 -11.392  1.00  0.00     0.003 C 
ATOM      2  H   UNL     1      44.019   3.696   5.404  1.00  0.00     0.043 H 
ATOM      3  H   UNL     1      44.019   3.696   5.404  1.00  0.00     0.043 H 
ENDROOT
BRANCH   1   4
ATOM      4  N   UNL     1      17.577  29.261 -10.184  1.00  0.00    -0.298 NA
BRANCH   4   5
ATOM      5  C   UNL     1      16.097  29.153 -10.225  1.00  0.00     0.004 C 
ATOM      6  H   UNL     1     -21.447  21.241 -13.119  1.00  0.00     0.046 H 
BRANCH   5   7
ATOM      7  C   UNL     1      15.412  30.527 -10.328  1.00  0.00    -0.050 C 
ATOM      8  H   UNL     1     -15.729  25.902  11.153  1.00  0.00     0.025 H 
ATOM      9  H   UNL     1     -15.729  25.902  11.153  1.00  0.00     0.025 H 
ATOM     10  H   UNL     1     -15.729  25.902  11.153  1.00  0.00     0.025 H 
ENDBRANCH   5   7
BRANCH   5  11
ATOM     11  C   UNL     1      15.588  28.311 -11.411  1.00  0.00    -0.050 C 
ATOM     12  H   UNL     1       6.395  46.649 -43.093  1.00  0.00     0.025 H 
ATOM     13  H   UNL     1       6.395  46.649 -43.093  1.00  0.00     0.025 H 
ATOM     14  H   UNL     1       6.395  46.649 -43.093  1.00  0.00     0.025 H 
ENDBRANCH   5  11
ENDBRANCH   4   5
BRANCH   4  15
ATOM     15  C   UNL     1      18.285  28.110  -9.578  1.00  0.00     0.004 C 
ATOM     16  H   UNL     1       2.140  58.856  11.762  1.00  0.00     0.046 H 
BRANCH  15  17
ATOM     17  C   UNL     1      17.545  27.385  -8.445  1.00  0.00    -0.050 C 
ATOM     18  H   UNL     1      45.959   1.170   3.450  1.00  0.00     0.025 H 
ATOM     19  H   UNL     1      45.959   1.170   3.450  1.00  0.00     0.025 H 
ATOM     20  H   UNL     1      45.959   1.170   3.450  1.00  0.00     0.025 H 
ENDBRANCH  15  17
BRANCH  15  21
ATOM     21  C   UNL     1      18.779  27.076 -10.602  1.00  0.00    -0.050 C 
ATOM     22  H   UNL     1       4.421  59.955  11.754  1.00  0.00     0.025 H 
ATOM     23  H   UNL     1       4.421  59.955  11.754  1.00  0.00     0.025 H 
ATOM     24  H   UNL     1       4.421  59.955  11.754  1.00  0.00     0.025 H 
ENDBRANCH  15  21
ENDBRANCH   4  15
ENDBRANCH   1   4
BRANCH   1  25
ATOM     25  C   UNL     1      19.442  30.723 -11.199  1.00  0.00    -0.013 C 
ATOM     26  H   UNL     1      21.155  47.837 -47.454  1.00  0.00     0.033 H 
ATOM     27  H   UNL     1      21.155  47.837 -47.454  1.00  0.00     0.033 H 
BRANCH  25  28
ATOM     28  C   UNL     1      19.200  31.841 -10.228  1.00  0.00    -0.021 A 
ATOM     29  C   UNL     1      18.691  33.090 -10.526  1.00  0.00     0.005 A 
ATOM     30  C   UNL     1      19.450  31.819  -8.817  1.00  0.00     0.003 A 
ATOM     31  N   UNL     1      18.623  33.814  -9.367  1.00  0.00    -0.361 N 
ATOM     32  H   UNL     1      14.695  46.668 -47.716  1.00  0.00     0.082 H 
ATOM     33  C   UNL     1      19.079  33.064  -8.308  1.00  0.00     0.046 A 
ATOM     34  C   UNL     1      19.956  30.852  -7.925  1.00  0.00    -0.053 A 
ATOM     35  H   UNL     1      14.695  46.668 -47.716  1.00  0.00     0.166 HD
ATOM     36  C   UNL     1      19.189  33.391  -6.952  1.00  0.00    -0.038 A 
ATOM     37  C   UNL     1      20.072  31.162  -6.564  1.00  0.00    -0.062 A 
ATOM     38  H   UNL     1      14.695  46.668 -47.716  1.00  0.00     0.063 H 
ATOM     39  C   UNL     1      19.694  32.415  -6.088  1.00  0.00    -0.060 A 
ATOM     40  H   UNL     1      14.695  46.668 -47.716  1.00  0.00     0.064 H 
ATOM     41  H   UNL     1      14.695  46.668 -47.716  1.00  0.00     0.062 H 
ATOM     42  H   UNL     1      14.695  46.668 -47.716  1.00  0.00     0.062 H 
ENDBRANCH  25  28
ENDBRANCH   1  25
TORSDOF 9
ENDMDL
MODEL 2
REMARK VINA RESULT:    -5.219      0.438      2.078
REMARK INTER + INTRA:          -8.298
REMARK INTER:                  -7.167
REMARK INTRA:                  -1.131
REMARK UNBOUND:                -0.943
REMARK SMILES CC(C)N(CCc1c[nH]c2ccccc12)C(C)C
REMARK SMILES IDX 5 1 4 4 2 5 1 7 3 11 16 15 17 17 18 21 6 25 7 28 8 29 15 30
REMARK SMILES IDX 9 31 10 33 14 34 11 36 13 37 12 39
REMARK H PARENT 5 2 5 3 2 6 1 8 1 9 1 10 3 12 3 13 3 14 16 16 17 18 17 19
REMARK H PARENT 17 20 18 22 18 23 18 24 6 26 6 27 8 32 9 35 14 38 11 40 13 41
REMARK H PARENT 12 42
REMARK Flexibility Score: inf
ROOT
ATOM      1  C   UNL     1      18.146  30.199 -11.846  1.00  0.00     0.003 C 
ATOM      2  H   UNL     1      43.340  -1.103 -16.132  1.00  0.00     0.043 H 
ATOM      3  H   UNL     1      43.340  -1.103 -16.132  1.00  0.00     0.043 H 
ENDROOT
BRANCH   1   4
ATOM      4  N   UNL     1      17.582  29.022 -11.157  1.00  0.00    -0.298 NA
BRANCH   4   5
ATOM      5  C   UNL     1      18.546  28.262 -10.323  1.00  0.00     0.004 C 
ATOM      6  H   UNL     1      46.311   7.719   6.636  1.00  0.00     0.046 H 
BRANCH   5   7
ATOM      7  C   UNL     1      17.913  27.746  -9.019  1.00  0.00    -0.050 C 
ATOM      8  H   UNL     1     -19.356  28.714 -16.937  1.00  0.00     0.025 H 
ATOM      9  H   UNL     1     -19.356  28.714 -16.937  1.00  0.00     0.025 H 
ATOM     10  H   UNL     1     -19.356  28.714 -16.937  1.00  0.00     0.025 H 
ENDBRANCH   5   7
BRANCH   5  11
ATOM     11  C   UNL     1      19.135  27.037 -11.049  1.00  0.00    -0.050 C 
ATOM     12  H   UNL     1      49.736  10.902   4.041  1.00  0.00     0.025 H 
ATOM     13  H   UNL     1      49.736  10.902   4.041  1.00  0.00     0.025 H 
ATOM     14  H   UNL     1      49.736  10.902   4.041  1.00  0.00     0.025 H 
ENDBRANCH   5  11
ENDBRANCH   4   5
BRANCH   4  15
ATOM     15  C   UNL     1      16.228  29.187 -10.578  1.00  0.00     0.004 C 
ATOM     16  H   UNL     1      48.983  50.224   1.502  1.00  0.00     0.046 H 
BRANCH  15  17
ATOM     17  C   UNL     1      15.698  30.625 -10.503  1.00  0.00    -0.050 C 
ATOM     18  H   UNL     1      -3.119  33.515 -46.191  1.00  0.00     0.025 H 
ATOM     19  H   UNL     1      -3.119  33.515 -46.191  1.00  0.00     0.025 H 
ATOM     20  H   UNL     1      -3.119  33.515 -46.191  1.00  0.00     0.025 H 
ENDBRANCH  15  17
BRANCH  15  21
ATOM     21  C   UNL     1      15.163  28.289 -11.227  1.00  0.00    -0.050 C 
ATOM     22  H   UNL     1      38.932  57.760   7.572  1.00  0.00     0.025 H 
ATOM     23  H   UNL     1      38.932  57.760   7.572  1.00  0.00     0.025 H 
ATOM     24  H   UNL     1      38.932  57.760   7.572  1.00  0.00     0.025 H 
ENDBRANCH  15  21
ENDBRANCH   4  15
ENDBRANCH   1   4
BRANCH   1  25
ATOM     25  C   UNL     1      19.461  30.781 -11.299  1.00  0.00    -0.013 C 
ATOM     26  H   UNL     1      32.977  48.901 -44.453  1.00  0.00     0.033 H 
ATOM     27  H   UNL     1      32.977  48.901 -44.453  1.00  0.00     0.033 H 
BRANCH  25  28
ATOM     28  C   UNL     1      19.219  31.876 -10.302  1.00  0.00    -0.021 A 
ATOM     29  C   UNL     1      18.731  33.139 -10.574  1.00  0.00     0.005 A 
ATOM     30  C   UNL     1      19.448  31.813  -8.889  1.00  0.00     0.003 A 
ATOM     31  N   UNL     1      18.655  33.833  -9.396  1.00  0.00    -0.361 N 
ATOM     32  H   UNL     1      15.456  47.756 -47.438  1.00  0.00     0.082 H 
ATOM     33  C   UNL     1      19.086  33.049  -8.352  1.00  0.00     0.046 A 
ATOM     34  C   UNL     1      19.928  30.816  -8.015  1.00  0.00    -0.053 A 
ATOM     35  H   UNL     1      15.456  47.756 -47.438  1.00  0.00     0.166 HD
ATOM     36  C   UNL     1      19.180  33.338  -6.986  1.00  0.00    -0.038 A 
ATOM     37  C   UNL     1      20.029  31.088  -6.646  1.00  0.00    -0.062 A 
ATOM     38  H   UNL     1      15.456  47.756 -47.438  1.00  0.00     0.063 H 
ATOM     39  C   UNL     1      19.659  32.333  -6.141  1.00  0.00    -0.060 A 
ATOM     40  H   UNL     1      15.456  47.756 -47.438  1.00  0.00     0.064 H 
ATOM     41  H   UNL     1      15.456  47.756 -47.438  1.00  0.00     0.062 H 
ATOM     42  H   UNL     1      15.456  47.756 -47.438  1.00  0.00     0.062 H 
ENDBRANCH  25  28
ENDBRANCH   1  25
TORSDOF 9
ENDMDL
MODEL 3
REMARK VINA RESULT:    -5.074      2.025      5.523
REMARK INTER + INTRA:          -8.093
REMARK INTER:                  -6.915
REMARK INTRA:                  -1.177
REMARK UNBOUND:                -0.943
REMARK SMILES CC(C)N(CCc1c[nH]c2ccccc12)C(C)C
REMARK SMILES IDX 5 1 4 4 2 5 1 7 3 11 16 15 17 17 18 21 6 25 7 28 8 29 15 30
REMARK SMILES IDX 9 31 10 33 14 34 11 36 13 37 12 39
REMARK H PARENT 5 2 5 3 2 6 1 8 1 9 1 10 3 12 3 13 3 14 16 16 17 18 17 19
REMARK H PARENT 17 20 18 22 18 23 18 24 6 26 6 27 8 32 9 35 14 38 11 40 13 41
REMARK H PARENT 12 42
REMARK Flexibility Score: inf
ROOT
ATOM      1  C   UNL     1      16.036  30.916 -10.363  1.00  0.00     0.003 C 
ATOM      2  H   UNL     1      53.243  15.727 -14.587  1.00  0.00     0.043 H 
ATOM      3  H   UNL     1      53.243  15.727 -14.587  1.00  0.00     0.043 H 
ENDROOT
BRANCH   1   4
ATOM      4  N   UNL     1      16.808  31.770 -11.288  1.00  0.00    -0.298 NA
BRANCH   4   5
ATOM      5  C   UNL     1      16.088  32.970 -11.781  1.00  0.00     0.004 C 
ATOM      6  H   UNL     1       2.377  66.050 -25.861  1.00  0.00     0.046 H 
BRANCH   5   7
ATOM      7  C   UNL     1      14.702  33.131 -11.131  1.00  0.00    -0.050 C 
ATOM      8  H   UNL     1      -0.455  -1.599 -15.217  1.00  0.00     0.025 H 
ATOM      9  H   UNL     1      -0.455  -1.599 -15.217  1.00  0.00     0.025 H 
ATOM     10  H   UNL     1      -0.455  -1.599 -15.217  1.00  0.00     0.025 H 
ENDBRANCH   5   7
BRANCH   5  11
ATOM     11  C   UNL     1      16.856  34.281 -11.523  1.00  0.00    -0.050 C 
ATOM     12  H   UNL     1      12.444  62.241 -36.489  1.00  0.00     0.025 H 
ATOM     13  H   UNL     1      12.444  62.241 -36.489  1.00  0.00     0.025 H 
ATOM     14  H   UNL     1      12.444  62.241 -36.489  1.00  0.00     0.025 H 
ENDBRANCH   5  11
ENDBRANCH   4   5
BRANCH   4  15
ATOM     15  C   UNL     1      18.237  31.975 -10.954  1.00  0.00     0.004 C 
ATOM     16  H   UNL     1     -12.737  45.207  12.000  1.00  0.00     0.046 H 
BRANCH  15  17
ATOM     17  C   UNL     1      18.664  31.562  -9.539  1.00  0.00    -0.050 C 
ATOM     18  H   UNL     1      37.880  65.048   2.523  1.00  0.00     0.025 H 
ATOM     19  H   UNL     1      37.880  65.048   2.523  1.00  0.00     0.025 H 
ATOM     20  H   UNL     1      37.880  65.048   2.523  1.00  0.00     0.025 H 
ENDBRANCH  15  17
BRANCH  15  21
ATOM     21  C   UNL     1      19.207  31.358 -11.975  1.00  0.00    -0.050 C 
ATOM     22  H   UNL     1      -2.759  53.985  16.177  1.00  0.00     0.025 H 
ATOM     23  H   UNL     1      -2.759  53.985  16.177  1.00  0.00     0.025 H 
ATOM     24  H   UNL     1      -2.759  53.985  16.177  1.00  0.00     0.025 H 
ENDBRANCH  15  21
ENDBRANCH   4  15
ENDBRANCH   1   4
BRANCH   1  25
ATOM     25  C   UNL     1      15.734  29.476 -10.811  1.00  0.00    -0.013 C 
ATOM     26  H   UNL     1      16.154  34.670 -50.598  1.00  0.00     0.033 H 
ATOM     27  H   UNL     1      16.154  34.670 -50.598  1.00  0.00     0.033 H 
BRANCH  25  28
ATOM     28  C   UNL     1      16.869  28.543 -10.506  1.00  0.00    -0.021 A 
ATOM     29  C   UNL     1      17.225  28.066  -9.259  1.00  0.00     0.005 A 
ATOM     30  C   UNL     1      17.787  27.974 -11.447  1.00  0.00     0.003 A 
ATOM     31  N   UNL     1      18.308  27.242  -9.408  1.00  0.00    -0.361 N 
ATOM     32  H   UNL     1       2.626  42.820  24.690  1.00  0.00     0.082 H 
ATOM     33  C   UNL     1      18.672  27.166 -10.732  1.00  0.00     0.046 A 
ATOM     34  C   UNL     1      17.945  28.069 -12.845  1.00  0.00    -0.053 A 
ATOM     35  H   UNL     1       2.626  42.820  24.690  1.00  0.00     0.166 HD
ATOM     36  C   UNL     1      19.708  26.451 -11.343  1.00  0.00    -0.038 A 
ATOM     37  C   UNL     1      18.976  27.360 -13.473  1.00  0.00    -0.062 A 
ATOM     38  H   UNL     1       2.626  42.820  24.690  1.00  0.00     0.063 H 
ATOM     39  C   UNL     1      19.844  26.563 -12.730  1.00  0.00    -0.060 A 
ATOM     40  H   UNL     1       2.626  42.820  24.690  1.00  0.00     0.064 H 
ATOM     41  H   UNL     1       2.626  42.820  24.690  1.00  0.00     0.062 H 
ATOM     42  H   UNL     1       2.626  42.820  24.690  1.00  0.00     0.062 H 
ENDBRANCH  25  28
ENDBRANCH   1  25
TORSDOF 9
ENDMDL
MODEL 4
REMARK VINA RESULT:    -5.038      1.990      5.631
REMARK INTER + INTRA:          -8.042
REMARK INTER:                  -7.066
REMARK INTRA:                  -0.976
REMARK UNBOUND:                -0.943
REMARK SMILES CC(C)N(CCc1c[nH]c2ccccc12)C(C)C
REMARK SMILES IDX 5 1 4 4 2 5 1 7 3 11 16 15 17 17 18 21 6 25 7 28 8 29 15 30
REMARK SMILES IDX 9 31 10 33 14 34 11 36 13 37 12 39
REMARK H PARENT 5 2 5 3 2 6 1 8 1 9 1 10 3 12 3 13 3 14 16 16 17 18 17 19
REMARK H PARENT 17 20 18 22 18 23 18 24 6 26 6 27 8 32 9 35 14 38 11 40 13 41
REMARK H PARENT 12 42
REMARK Flexibility Score: inf
ROOT
ATOM      1  C   UNL     1      20.788  31.399  -8.012  1.00  0.00     0.003 C 
ATOM      2  H   UNL     1      58.936  36.281 -20.415  1.00  0.00     0.043 H 
ATOM      3  H   UNL     1      58.936  36.281 -20.415  1.00  0.00     0.043 H 
ENDROOT
BRANCH   1   4
ATOM      4  N   UNL     1      21.319  32.665  -7.467  1.00  0.00    -0.298 NA
BRANCH   4   5
ATOM      5  C   UNL     1      22.101  33.481  -8.428  1.00  0.00     0.004 C 
ATOM      6  H   UNL     1      46.821  52.239 -31.179  1.00  0.00     0.046 H 
BRANCH   5   7
ATOM      7  C   UNL     1      21.340  34.738  -8.885  1.00  0.00    -0.050 C 
ATOM      8  H   UNL     1      45.611  62.790  -0.130  1.00  0.00     0.025 H 
ATOM      9  H   UNL     1      45.611  62.790  -0.130  1.00  0.00     0.025 H 
ATOM     10  H   UNL     1      45.611  62.790  -0.130  1.00  0.00     0.025 H 
ENDBRANCH   5   7
BRANCH   5  11
ATOM     11  C   UNL     1      23.448  33.960  -7.853  1.00  0.00    -0.050 C 
ATOM     12  H   UNL     1      25.812  38.410  29.552  1.00  0.00     0.025 H 
ATOM     13  H   UNL     1      25.812  38.410  29.552  1.00  0.00     0.025 H 
ATOM     14  H   UNL     1      25.812  38.410  29.552  1.00  0.00     0.025 H 
ENDBRANCH   5  11
ENDBRANCH   4   5
BRANCH   4  15
ATOM     15  C   UNL     1      20.416  33.424  -6.571  1.00  0.00     0.004 C 
ATOM     16  H   UNL     1      15.705  30.880 -46.977  1.00  0.00     0.046 H 
BRANCH  15  17
ATOM     17  C   UNL     1      18.917  33.130  -6.719  1.00  0.00    -0.050 C 
ATOM     18  H   UNL     1      18.240  16.147 -43.424  1.00  0.00     0.025 H 
ATOM     19  H   UNL     1      18.240  16.147 -43.424  1.00  0.00     0.025 H 
ATOM     20  H   UNL     1      18.240  16.147 -43.424  1.00  0.00     0.025 H 
ENDBRANCH  15  17
BRANCH  15  21
ATOM     21  C   UNL     1      20.803  33.341  -5.085  1.00  0.00    -0.050 C 
ATOM     22  H   UNL     1      16.909  32.935 -47.177  1.00  0.00     0.025 H 
ATOM     23  H   UNL     1      16.909  32.935 -47.177  1.00  0.00     0.025 H 
ATOM     24  H   UNL     1      16.909  32.935 -47.177  1.00  0.00     0.025 H 
ENDBRANCH  15  21
ENDBRANCH   4  15
ENDBRANCH   1   4
BRANCH   1  25
ATOM     25  C   UNL     1      20.634  31.292  -9.539  1.00  0.00    -0.013 C 
ATOM     26  H   UNL     1      28.798  -7.710 -14.275  1.00  0.00     0.033 H 
ATOM     27  H   UNL     1      28.798  -7.710 -14.275  1.00  0.00     0.033 H 
BRANCH  25  28
ATOM     28  C   UNL     1      19.210  31.469  -9.975  1.00  0.00    -0.021 A 
ATOM     29  C   UNL     1      18.631  32.640 -10.425  1.00  0.00     0.005 A 
ATOM     30  C   UNL     1      18.191  30.462 -10.007  1.00  0.00     0.003 A 
ATOM     31  N   UNL     1      17.320  32.384 -10.725  1.00  0.00    -0.361 N 
ATOM     32  H   UNL     1      36.101  68.241  -7.153  1.00  0.00     0.082 H 
ATOM     33  C   UNL     1      17.024  31.063 -10.480  1.00  0.00     0.046 A 
ATOM     34  C   UNL     1      18.156  29.092  -9.678  1.00  0.00    -0.053 A 
ATOM     35  H   UNL     1      36.101  68.241  -7.153  1.00  0.00     0.166 HD
ATOM     36  C   UNL     1      15.823  30.363 -10.640  1.00  0.00    -0.038 A 
ATOM     37  C   UNL     1      16.962  28.376  -9.833  1.00  0.00    -0.062 A 
ATOM     38  H   UNL     1      36.101  68.241  -7.153  1.00  0.00     0.063 H 
ATOM     39  C   UNL     1      15.814  29.005 -10.307  1.00  0.00    -0.060 A 
ATOM     40  H   UNL     1      36.101  68.241  -7.153  1.00  0.00     0.064 H 
ATOM     41  H   UNL     1      36.101  68.241  -7.153  1.00  0.00     0.062 H 
ATOM     42  H   UNL     1      36.101  68.241  -7.153  1.00  0.00     0.062 H 
ENDBRANCH  25  28
ENDBRANCH   1  25
TORSDOF 9
ENDMDL
MODEL 5
REMARK VINA RESULT:    -4.892      1.942      5.706
REMARK INTER + INTRA:          -7.837
REMARK INTER:                  -7.166
REMARK INTRA:                  -0.671
REMARK UNBOUND:                -0.943
REMARK SMILES CC(C)N(CCc1c[nH]c2ccccc12)C(C)C
REMARK SMILES IDX 5 1 4 4 2 5 1 7 3 11 16 15 17 17 18 21 6 25 7 28 8 29 15 30
REMARK SMILES IDX 9 31 10 33 14 34 11 36 13 37 12 39
REMARK H PARENT 5 2 5 3 2 6 1 8 1 9 1 10 3 12 3 13 3 14 16 16 17 18 17 19
REMARK H PARENT 17 20 18 22 18 23 18 24 6 26 6 27 8 32 9 35 14 38 11 40 13 41
REMARK H PARENT 12 42
REMARK Flexibility Score: inf
ROOT
ATOM      1  C   UNL     1      19.212  33.259  -8.409  1.00  0.00     0.003 C 
ATOM      2  H   UNL     1      41.725  -0.053  -4.365  1.00  0.00     0.043 H 
ATOM      3  H   UNL     1      41.725  -0.053  -4.365  1.00  0.00     0.043 H 
ENDROOT
BRANCH   1   4
ATOM      4  N   UNL     1      20.470  33.603  -7.718  1.00  0.00    -0.298 NA
BRANCH   4   5
ATOM      5  C   UNL     1      20.864  32.671  -6.633  1.00  0.00     0.004 C 
ATOM      6  H   UNL     1      30.600   4.527  17.733  1.00  0.00     0.046 H 
BRANCH   5   7
ATOM      7  C   UNL     1      20.573  33.243  -5.234  1.00  0.00    -0.050 C 
ATOM      8  H   UNL     1      -8.009  57.536 -11.983  1.00  0.00     0.025 H 
ATOM      9  H   UNL     1      -8.009  57.536 -11.983  1.00  0.00     0.025 H 
ATOM     10  H   UNL     1      -8.009  57.536 -11.983  1.00  0.00     0.025 H 
ENDBRANCH   5   7
BRANCH   5  11
ATOM     11  C   UNL     1      20.144  31.311  -6.718  1.00  0.00    -0.050 C 
ATOM     12  H   UNL     1      25.917  10.450 -37.637  1.00  0.00     0.025 H 
ATOM     13  H   UNL     1      25.917  10.450 -37.637  1.00  0.00     0.025 H 
ATOM     14  H   UNL     1      25.917  10.450 -37.637  1.00  0.00     0.025 H 
ENDBRANCH   5  11
ENDBRANCH   4   5
BRANCH   4  15
ATOM     15  C   UNL     1      21.577  34.092  -8.573  1.00  0.00     0.004 C 
ATOM     16  H   UNL     1     -17.484  32.914 -20.158  1.00  0.00     0.046 H 
BRANCH  15  17
ATOM     17  C   UNL     1      21.372  35.471  -9.216  1.00  0.00    -0.050 C 
ATOM     18  H   UNL     1      58.665  42.876 -23.018  1.00  0.00     0.025 H 
ATOM     19  H   UNL     1      58.665  42.876 -23.018  1.00  0.00     0.025 H 
ATOM     20  H   UNL     1      58.665  42.876 -23.018  1.00  0.00     0.025 H 
ENDBRANCH  15  17
BRANCH  15  21
ATOM     21  C   UNL     1      22.953  34.052  -7.890  1.00  0.00    -0.050 C 
ATOM     22  H   UNL     1     -11.142  37.179 -32.683  1.00  0.00     0.025 H 
ATOM     23  H   UNL     1     -11.142  37.179 -32.683  1.00  0.00     0.025 H 
ATOM     24  H   UNL     1     -11.142  37.179 -32.683  1.00  0.00     0.025 H 
ENDBRANCH  15  21
ENDBRANCH   4  15
ENDBRANCH   1   4
BRANCH   1  25
ATOM     25  C   UNL     1      19.310  32.772  -9.865  1.00  0.00    -0.013 C 
ATOM     26  H   UNL     1      46.316   3.457  -5.229  1.00  0.00     0.033 H 
ATOM     27  H   UNL     1      46.316   3.457  -5.229  1.00  0.00     0.033 H 
BRANCH  25  28
ATOM     28  C   UNL     1      18.049  32.101 -10.320  1.00  0.00    -0.021 A 
ATOM     29  C   UNL     1      16.970  32.711 -10.931  1.00  0.00     0.005 A 
ATOM     30  C   UNL     1      17.731  30.708 -10.209  1.00  0.00     0.003 A 
ATOM     31  N   UNL     1      16.025  31.755 -11.190  1.00  0.00    -0.361 N 
ATOM     32  H   UNL     1      12.433  72.202 -12.730  1.00  0.00     0.082 H 
ATOM     33  C   UNL     1      16.462  30.524 -10.761  1.00  0.00     0.046 A 
ATOM     34  C   UNL     1      18.408  29.585  -9.691  1.00  0.00    -0.053 A 
ATOM     35  H   UNL     1      12.433  72.202 -12.730  1.00  0.00     0.166 HD
ATOM     36  C   UNL     1      15.837  29.273 -10.820  1.00  0.00    -0.038 A 
ATOM     37  C   UNL     1      17.796  28.327  -9.742  1.00  0.00    -0.062 A 
ATOM     38  H   UNL     1      12.433  72.202 -12.730  1.00  0.00     0.063 H 
ATOM     39  C   UNL     1      16.529  28.176 -10.299  1.00  0.00    -0.060 A 
ATOM     40  H   UNL     1      12.433  72.202 -12.730  1.00  0.00     0.064 H 
ATOM     41  H   UNL     1      12.433  72.202 -12.730  1.00  0.00     0.062 H 
ATOM     42  H   UNL     1      12.433  72.202 -12.730  1.00  0.00     0.062 H 
ENDBRANCH  25  28
ENDBRANCH   1  25
TORSDOF 9
ENDMDL
