
     RDKit          3D

 57 61  0  0  0  0  0  0  0  0999 V2000
   -3.8394   -5.2952    1.2761 N   0  0  0  0  0  0  0  0  0  0  0  0
   -4.2384   -4.0539    0.8020 C   0  0  0  0  0  0  0  0  0  0  0  0
   -5.5585   -3.8349    0.6116 N   0  0  0  0  0  0  0  0  0  0  0  0
   -5.9458   -2.6378    0.1300 C   0  0  0  0  0  0  0  0  0  0  0  0
   -5.1789   -1.5690   -0.1772 N   0  0  0  0  0  0  0  0  0  0  0  0
   -3.8774   -1.8268    0.0567 C   0  0  0  0  0  0  0  0  0  0  0  0
   -3.3395   -3.0121    0.5252 C   0  0  0  0  0  0  0  0  0  0  0  0
   -1.9739   -2.9219    0.6317 N   0  0  0  0  0  0  0  0  0  0  0  0
   -1.6689   -1.7178    0.2021 C   0  0  0  0  0  0  0  0  0  0  0  0
   -0.4324   -1.2060    0.0490 N   0  0  0  0  0  0  0  0  0  0  0  0
    0.6938   -1.8948    0.6479 C   0  0  0  0  0  0  0  0  0  0  0  0
    1.9754   -1.1938    0.2633 C   0  0  0  0  0  0  0  0  0  0  0  0
    2.4285   -1.2265   -1.0619 C   0  0  0  0  0  0  0  0  0  0  0  0
    3.6135   -0.5794   -1.4248 C   0  0  0  0  0  0  0  0  0  0  0  0
    4.3799    0.1167   -0.4757 C   0  0  0  0  0  0  0  0  0  0  0  0
    5.6292    0.7954   -0.8594 C   0  0  0  0  0  0  0  0  0  0  0  0
    6.6528    0.1030   -1.5310 C   0  0  0  0  0  0  0  0  0  0  0  0
    7.8389    0.7469   -1.8950 C   0  0  0  0  0  0  0  0  0  0  0  0
    8.0223    2.0950   -1.5943 C   0  0  0  0  0  0  0  0  0  0  0  0
    7.0201    2.8005   -0.9316 C   0  0  0  0  0  0  0  0  0  0  0  0
    5.8345    2.1556   -0.5673 C   0  0  0  0  0  0  0  0  0  0  0  0
    3.9156    0.1481    0.8485 C   0  0  0  0  0  0  0  0  0  0  0  0
    2.7295   -0.4973    1.2161 C   0  0  0  0  0  0  0  0  0  0  0  0
   -2.8011   -0.9869   -0.1112 N   0  0  0  0  0  0  0  0  0  0  0  0
   -2.8556    0.3649   -0.6536 C   0  0  2  0  0  0  0  0  0  0  0  0
   -1.7246    1.1336   -0.1595 O   0  0  0  0  0  0  0  0  0  0  0  0
   -2.1559    2.4904    0.1012 C   0  0  2  0  0  0  0  0  0  0  0  0
   -2.0348    2.7528    1.6079 C   0  0  0  0  0  0  0  0  0  0  0  0
   -2.3314    4.1042    1.9358 O   0  0  0  0  0  0  0  0  0  0  0  0
   -3.5855    2.6012   -0.4175 C   0  0  1  0  0  0  0  0  0  0  0  0
   -3.5833    2.9445   -1.8113 O   0  0  0  0  0  0  0  0  0  0  0  0
   -4.0991    1.1815   -0.2666 C   0  0  1  0  0  0  0  0  0  0  0  0
   -5.2327    0.9942   -1.1163 O   0  0  0  0  0  0  0  0  0  0  0  0
   -2.9141   -5.2979    1.6901 H   0  0  0  0  0  0  0  0  0  0  0  0
   -4.5789   -5.7862    1.7618 H   0  0  0  0  0  0  0  0  0  0  0  0
   -7.0148   -2.5182   -0.0280 H   0  0  0  0  0  0  0  0  0  0  0  0
   -0.3258   -0.1913   -0.0217 H   0  0  0  0  0  0  0  0  0  0  0  0
    0.7477   -2.9371    0.3080 H   0  0  0  0  0  0  0  0  0  0  0  0
    0.5871   -1.9125    1.7398 H   0  0  0  0  0  0  0  0  0  0  0  0
    1.8508   -1.7522   -1.8212 H   0  0  0  0  0  0  0  0  0  0  0  0
    3.9299   -0.6112   -2.4653 H   0  0  0  0  0  0  0  0  0  0  0  0
    6.5343   -0.9523   -1.7653 H   0  0  0  0  0  0  0  0  0  0  0  0
    8.6171    0.1945   -2.4126 H   0  0  0  0  0  0  0  0  0  0  0  0
    8.9447    2.5954   -1.8769 H   0  0  0  0  0  0  0  0  0  0  0  0
    7.1594    3.8515   -0.6973 H   0  0  0  0  0  0  0  0  0  0  0  0
    5.0610    2.7273   -0.0589 H   0  0  0  0  0  0  0  0  0  0  0  0
    4.4880    0.6691    1.6139 H   0  0  0  0  0  0  0  0  0  0  0  0
    2.4046   -0.4533    2.2532 H   0  0  0  0  0  0  0  0  0  0  0  0
   -2.7578    0.2605   -1.7426 H   0  0  0  0  0  0  0  0  0  0  0  0
   -1.4905    3.1694   -0.4440 H   0  0  0  0  0  0  0  0  0  0  0  0
   -2.6798    2.0877    2.1954 H   0  0  0  0  0  0  0  0  0  0  0  0
   -1.0072    2.5466    1.9313 H   0  0  0  0  0  0  0  0  0  0  0  0
   -3.2915    4.1979    2.0462 H   0  0  0  0  0  0  0  0  0  0  0  0
   -4.2024    3.3442    0.0956 H   0  0  0  0  0  0  0  0  0  0  0  0
   -4.4493    2.6380   -2.1555 H   0  0  0  0  0  0  0  0  0  0  0  0
   -4.3950    1.0010    0.7749 H   0  0  0  0  0  0  0  0  0  0  0  0
   -5.4942    0.0547   -1.0075 H   0  0  0  0  0  0  0  0  0  0  0  0
  1  2  1  0
  2  3  2  0
  3  4  1  0
  4  5  2  0
  5  6  1  0
  6  7  2  0
  7  8  1  0
  8  9  2  0
  9 10  1  0
 10 11  1  0
 11 12  1  0
 12 13  2  0
 13 14  1  0
 14 15  2  0
 15 16  1  0
 16 17  2  0
 17 18  1  0
 18 19  2  0
 19 20  1  0
 20 21  2  0
 15 22  1  0
 22 23  2  0
  9 24  1  0
 24 25  1  0
 25 26  1  0
 26 27  1  0
 27 28  1  0
 28 29  1  0
 27 30  1  0
 30 31  1  0
 30 32  1  0
 32 33  1  0
  7  2  1  0
 23 12  1  0
 32 25  1  0
 24  6  1  0
 21 16  1  0
  1 34  1  0
  1 35  1  0
  4 36  1  0
 10 37  1  0
 11 38  1  0
 11 39  1  0
 13 40  1  0
 14 41  1  0
 17 42  1  0
 18 43  1  0
 19 44  1  0
 20 45  1  0
 21 46  1  0
 22 47  1  0
 23 48  1  0
 25 49  1  6
 27 50  1  6
 28 51  1  0
 28 52  1  0
 29 53  1  0
 30 54  1  1
 31 55  1  0
 32 56  1  1
 33 57  1  0
M  END
