
     RDKit          3D

 45 46  0  0  0  0  0  0  0  0999 V2000
    6.1246    2.1463   -0.5136 C   0  0  0  0  0  0  0  0  0  0  0  0
    5.5505    1.0008   -0.9060 C   0  0  0  0  0  0  0  0  0  0  0  0
    5.1115   -0.0957    0.0218 C   0  0  0  0  0  0  0  0  0  0  0  0
    3.7031   -0.4483   -0.1794 N   0  0  0  0  0  0  0  0  0  0  0  0
    3.2602   -1.5520   -0.8794 C   0  0  0  0  0  0  0  0  0  0  0  0
    4.1580   -2.5439   -1.5308 C   0  0  0  0  0  0  0  0  0  0  0  0
    1.8833   -1.5330   -0.8448 C   0  0  0  0  0  0  0  0  0  0  0  0
    1.4572   -0.3730   -0.1384 C   0  0  0  0  0  0  0  0  0  0  0  0
    0.0630    0.0261    0.0694 C   0  0  0  0  0  0  0  0  0  0  0  0
   -0.8043   -0.9419    0.1262 N   0  0  0  0  0  0  0  0  0  0  0  0
   -2.1571   -0.6536    0.3747 N   0  0  0  0  0  0  0  0  0  0  0  0
   -2.7121    0.4457   -0.0287 C   0  0  0  0  0  0  0  0  0  0  0  0
   -4.0380    0.7655    0.0883 N   0  0  0  0  0  0  0  0  0  0  0  0
   -5.1235   -0.1738    0.3638 C   0  0  0  0  0  0  0  0  0  0  0  0
   -6.4367    0.6317    0.3607 C   0  0  0  0  0  0  0  0  0  0  0  0
   -5.1988   -1.2433   -0.7328 C   0  0  0  0  0  0  0  0  0  0  0  0
   -4.9581   -0.8158    1.7473 C   0  0  0  0  0  0  0  0  0  0  0  0
   -1.8150    1.7503   -0.7777 S   0  0  0  0  0  0  0  0  0  0  0  0
   -0.3173    1.4739    0.1909 C   0  0  0  0  0  0  0  0  0  0  0  0
    2.6142    0.2634    0.3087 C   0  0  0  0  0  0  0  0  0  0  0  0
    2.7776    1.4782    1.1618 C   0  0  0  0  0  0  0  0  0  0  0  0
    6.4161    2.8972   -1.2425 H   0  0  0  0  0  0  0  0  0  0  0  0
    6.3152    2.3642    0.5327 H   0  0  0  0  0  0  0  0  0  0  0  0
    5.3817    0.8318   -1.9679 H   0  0  0  0  0  0  0  0  0  0  0  0
    5.2436    0.1646    1.0766 H   0  0  0  0  0  0  0  0  0  0  0  0
    5.7199   -0.9877   -0.1550 H   0  0  0  0  0  0  0  0  0  0  0  0
    4.7409   -3.0880   -0.7810 H   0  0  0  0  0  0  0  0  0  0  0  0
    3.5791   -3.2782   -2.1008 H   0  0  0  0  0  0  0  0  0  0  0  0
    4.8451   -2.0514   -2.2260 H   0  0  0  0  0  0  0  0  0  0  0  0
    1.2320   -2.2676   -1.3047 H   0  0  0  0  0  0  0  0  0  0  0  0
   -4.2919    1.5567   -0.4928 H   0  0  0  0  0  0  0  0  0  0  0  0
   -7.2999   -0.0105    0.5686 H   0  0  0  0  0  0  0  0  0  0  0  0
   -6.4160    1.4243    1.1181 H   0  0  0  0  0  0  0  0  0  0  0  0
   -6.6051    1.1137   -0.6097 H   0  0  0  0  0  0  0  0  0  0  0  0
   -6.0639   -1.8995   -0.5849 H   0  0  0  0  0  0  0  0  0  0  0  0
   -4.3065   -1.8778   -0.7461 H   0  0  0  0  0  0  0  0  0  0  0  0
   -5.2887   -0.7866   -1.7252 H   0  0  0  0  0  0  0  0  0  0  0  0
   -5.8414   -1.4077    2.0140 H   0  0  0  0  0  0  0  0  0  0  0  0
   -4.0985   -1.4912    1.7914 H   0  0  0  0  0  0  0  0  0  0  0  0
   -4.8179   -0.0539    2.5227 H   0  0  0  0  0  0  0  0  0  0  0  0
    0.4636    2.1271   -0.2038 H   0  0  0  0  0  0  0  0  0  0  0  0
   -0.4955    1.7180    1.2425 H   0  0  0  0  0  0  0  0  0  0  0  0
    3.6298    1.3946    1.8413 H   0  0  0  0  0  0  0  0  0  0  0  0
    1.9006    1.6349    1.7963 H   0  0  0  0  0  0  0  0  0  0  0  0
    2.9154    2.3656    0.5365 H   0  0  0  0  0  0  0  0  0  0  0  0
  1  2  2  3
  2  3  1  0
  3  4  1  0
  4  5  1  0
  5  6  1  0
  5  7  2  0
  7  8  1  0
  8  9  1  0
  9 10  2  0
 10 11  1  0
 11 12  2  0
 12 13  1  0
 13 14  1  0
 14 15  1  0
 14 16  1  0
 14 17  1  0
 12 18  1  0
 18 19  1  0
  8 20  2  0
 20 21  1  0
 20  4  1  0
 19  9  1  0
  1 22  1  0
  1 23  1  0
  2 24  1  0
  3 25  1  0
  3 26  1  0
  6 27  1  0
  6 28  1  0
  6 29  1  0
  7 30  1  0
 13 31  1  0
 15 32  1  0
 15 33  1  0
 15 34  1  0
 16 35  1  0
 16 36  1  0
 16 37  1  0
 17 38  1  0
 17 39  1  0
 17 40  1  0
 19 41  1  0
 19 42  1  0
 21 43  1  0
 21 44  1  0
 21 45  1  0
M  END
