REMARK SMILES CC(C)(C)c1ccc(N(C(=O)c2ccncc2)[C@@H](C(=O)NCCc2cccc(F)c2)c2cccnc2)cc1
REMARK SMILES IDX 18 1 9 3 8 4 5 5 6 6 38 7 7 8 37 10 2 14 1 15 3 19 4 23
REMARK SMILES IDX 10 27 11 28 12 29 13 30 17 31 14 32 16 34 15 36 19 39 20 40
REMARK SMILES IDX 21 41 22 43 23 46 24 49 25 50 30 51 26 52 28 54 27 56 29 58
REMARK SMILES IDX 31 60 32 61 36 62 33 63 35 65 34 67
REMARK H PARENT 18 2 6 9 38 11 7 12 37 13 1 16 1 17 1 18 3 20 3 21 3 22 4 24
REMARK H PARENT 4 25 4 26 13 33 17 35 14 37 16 38 21 42 22 44 22 45 23 47
REMARK H PARENT 23 48 25 53 30 55 26 57 27 59 32 64 36 66 33 68 34 69
REMARK Flexibility Score: inf
ROOT
ATOM      1  C   UNL     1      19.470  32.961  -9.657  1.00  0.00     0.142 C 
ATOM      2  H   UNL     1       0.000   0.000   0.000  1.00  0.00     0.069 H 
ENDROOT
BRANCH   1   3
ATOM      3  N   UNL     1      18.747  34.263  -9.666  1.00  0.00    -0.292 N 
BRANCH   3   4
ATOM      4  C   UNL     1      17.501  34.286 -10.370  1.00  0.00     0.045 A 
ATOM      5  C   UNL     1      15.023  34.261 -11.779  1.00  0.00    -0.042 A 
ATOM      6  C   UNL     1      16.203  33.769 -12.364  1.00  0.00    -0.056 A 
ATOM      7  C   UNL     1      15.122  34.777 -10.477  1.00  0.00    -0.056 A 
ATOM      8  C   UNL     1      17.420  33.777 -11.670  1.00  0.00    -0.038 A 
ATOM      9  H   UNL     1       0.000   0.000   0.000  1.00  0.00     0.063 H 
ATOM     10  C   UNL     1      16.340  34.789  -9.782  1.00  0.00    -0.038 A 
ATOM     11  H   UNL     1       0.000   0.000   0.000  1.00  0.00     0.063 H 
ATOM     12  H   UNL     1       0.000   0.000   0.000  1.00  0.00     0.064 H 
ATOM     13  H   UNL     1       0.000   0.000   0.000  1.00  0.00     0.064 H 
BRANCH   5  14
ATOM     14  C   UNL     1      13.698  34.224 -12.563  1.00  0.00    -0.013 C 
BRANCH  14  15
ATOM     15  C   UNL     1      13.821  35.105 -13.824  1.00  0.00    -0.056 C 
ATOM     16  H   UNL     1       0.000   0.000   0.000  1.00  0.00     0.024 H 
ATOM     17  H   UNL     1       0.000   0.000   0.000  1.00  0.00     0.024 H 
ATOM     18  H   UNL     1       0.000   0.000   0.000  1.00  0.00     0.024 H 
ENDBRANCH  14  15
BRANCH  14  19
ATOM     19  C   UNL     1      12.480  34.732 -11.760  1.00  0.00    -0.056 C 
ATOM     20  H   UNL     1       0.000   0.000   0.000  1.00  0.00     0.024 H 
ATOM     21  H   UNL     1       0.000   0.000   0.000  1.00  0.00     0.024 H 
ATOM     22  H   UNL     1       0.000   0.000   0.000  1.00  0.00     0.024 H 
ENDBRANCH  14  19
BRANCH  14  23
ATOM     23  C   UNL     1      13.383  32.772 -12.994  1.00  0.00    -0.056 C 
ATOM     24  H   UNL     1       0.000   0.000   0.000  1.00  0.00     0.024 H 
ATOM     25  H   UNL     1       0.000   0.000   0.000  1.00  0.00     0.024 H 
ATOM     26  H   UNL     1       0.000   0.000   0.000  1.00  0.00     0.024 H 
ENDBRANCH  14  23
ENDBRANCH   5  14
ENDBRANCH   3   4
BRANCH   3  27
ATOM     27  C   UNL     1      19.212  35.303  -8.851  1.00  0.00     0.259 C 
ATOM     28  O   UNL     1      20.130  35.163  -8.040  1.00  0.00    -0.269 OA
BRANCH  27  29
ATOM     29  C   UNL     1      18.672  36.679  -8.988  1.00  0.00     0.043 A 
ATOM     30  C   UNL     1      18.466  37.265 -10.235  1.00  0.00    -0.031 A 
ATOM     31  C   UNL     1      18.459  37.425  -7.829  1.00  0.00    -0.031 A 
ATOM     32  C   UNL     1      18.029  38.580 -10.268  1.00  0.00     0.028 A 
ATOM     33  H   UNL     1       0.000   0.000   0.000  1.00  0.00     0.065 H 
ATOM     34  C   UNL     1      18.018  38.728  -7.967  1.00  0.00     0.028 A 
ATOM     35  H   UNL     1       0.000   0.000   0.000  1.00  0.00     0.065 H 
ATOM     36  N   UNL     1      17.789  39.316  -9.162  1.00  0.00    -0.265 NA
ATOM     37  H   UNL     1       0.000   0.000   0.000  1.00  0.00     0.084 H 
ATOM     38  H   UNL     1       0.000   0.000   0.000  1.00  0.00     0.084 H 
ENDBRANCH  27  29
ENDBRANCH   3  27
ENDBRANCH   1   3
BRANCH   1  39
ATOM     39  C   UNL     1      20.903  33.128 -10.233  1.00  0.00     0.247 C 
ATOM     40  O   UNL     1      21.145  32.895 -11.413  1.00  0.00    -0.272 OA
ATOM     41  N   UNL     1      21.854  33.566  -9.333  1.00  0.00    -0.354 N 
ATOM     42  H   UNL     1       0.000   0.000   0.000  1.00  0.00     0.163 HD
BRANCH  41  43
ATOM     43  C   UNL     1      23.242  33.785  -9.687  1.00  0.00     0.021 C 
ATOM     44  H   UNL     1       0.000   0.000   0.000  1.00  0.00     0.049 H 
ATOM     45  H   UNL     1       0.000   0.000   0.000  1.00  0.00     0.049 H 
BRANCH  43  46
ATOM     46  C   UNL     1      23.570  35.261  -9.937  1.00  0.00    -0.010 C 
ATOM     47  H   UNL     1       0.000   0.000   0.000  1.00  0.00     0.033 H 
ATOM     48  H   UNL     1       0.000   0.000   0.000  1.00  0.00     0.033 H 
BRANCH  46  49
ATOM     49  C   UNL     1      23.003  35.827 -11.217  1.00  0.00    -0.043 A 
ATOM     50  C   UNL     1      23.423  35.340 -12.465  1.00  0.00    -0.059 A 
ATOM     51  C   UNL     1      22.062  36.862 -11.179  1.00  0.00    -0.023 A 
ATOM     52  C   UNL     1      22.899  35.867 -13.648  1.00  0.00    -0.059 A 
ATOM     53  H   UNL     1       0.000   0.000   0.000  1.00  0.00     0.063 H 
ATOM     54  C   UNL     1      21.547  37.379 -12.363  1.00  0.00     0.123 A 
ATOM     55  H   UNL     1       0.000   0.000   0.000  1.00  0.00     0.066 H 
ATOM     56  C   UNL     1      21.955  36.889 -13.597  1.00  0.00    -0.026 A 
ATOM     57  H   UNL     1       0.000   0.000   0.000  1.00  0.00     0.062 H 
ATOM     58  F   UNL     1      20.632  38.358 -12.318  1.00  0.00    -0.207 F 
ATOM     59  H   UNL     1       0.000   0.000   0.000  1.00  0.00     0.065 H 
ENDBRANCH  46  49
ENDBRANCH  43  46
ENDBRANCH  41  43
ENDBRANCH   1  39
BRANCH   1  60
ATOM     60  C   UNL     1      19.410  32.144  -8.367  1.00  0.00     0.003 A 
ATOM     61  C   UNL     1      18.667  32.496  -7.234  1.00  0.00    -0.053 A 
ATOM     62  C   UNL     1      20.074  30.915  -8.318  1.00  0.00     0.033 A 
ATOM     63  C   UNL     1      18.653  31.657  -6.120  1.00  0.00    -0.043 A 
ATOM     64  H   UNL     1       0.000   0.000   0.000  1.00  0.00     0.063 H 
ATOM     65  N   UNL     1      20.063  30.072  -7.260  1.00  0.00    -0.264 NA
ATOM     66  H   UNL     1       0.000   0.000   0.000  1.00  0.00     0.084 H 
ATOM     67  C   UNL     1      19.358  30.467  -6.184  1.00  0.00     0.027 A 
ATOM     68  H   UNL     1       0.000   0.000   0.000  1.00  0.00     0.064 H 
ATOM     69  H   UNL     1       0.000   0.000   0.000  1.00  0.00     0.084 H 
ENDBRANCH   1  60
TORSDOF 13
