REMARK SMILES Nc1ncnc2c1nc(NCc1ccc(-c3ccccc3)cc1)n2[C@@H]1O[C@H](CO)[C@@H](O)[C@H]1O
REMARK SMILES IDX 2 1 3 2 4 3 5 4 6 5 7 6 8 7 9 8 24 9 1 11 25 14 26 15 32 16
REMARK SMILES IDX 27 18 30 19 33 23 28 25 29 28 31 30 10 32 11 34 12 37 13 38
REMARK SMILES IDX 23 39 14 40 22 42 15 44 16 47 17 48 21 49 18 50 20 52 19 54
REMARK H PARENT 4 10 1 12 1 13 25 17 32 20 27 21 30 22 33 24 28 26 28 27 29 29
REMARK H PARENT 31 31 10 33 11 35 11 36 13 41 23 43 14 45 22 46 17 51 21 53
REMARK H PARENT 18 55 20 56 19 57
REMARK Flexibility Score: inf
ROOT
ATOM      1  C   UNL     1      -4.238  -4.054   0.802  1.00  0.00     0.155 A 
ATOM      2  N   UNL     1      -5.558  -3.835   0.612  1.00  0.00    -0.217 NA
ATOM      3  C   UNL     1      -5.946  -2.638   0.130  1.00  0.00     0.120 A 
ATOM      4  N   UNL     1      -5.179  -1.569  -0.177  1.00  0.00    -0.216 NA
ATOM      5  C   UNL     1      -3.877  -1.827   0.057  1.00  0.00     0.169 A 
ATOM      6  C   UNL     1      -3.340  -3.012   0.525  1.00  0.00     0.152 A 
ATOM      7  N   UNL     1      -1.974  -2.922   0.632  1.00  0.00    -0.207 NA
ATOM      8  C   UNL     1      -1.669  -1.718   0.202  1.00  0.00     0.207 A 
ATOM      9  N   UNL     1      -2.801  -0.987  -0.111  1.00  0.00    -0.265 N 
ATOM     10  H   UNL     1      -7.015  -2.518  -0.028  1.00  0.00     0.106 H 
ENDROOT
BRANCH   1  11
ATOM     11  N   UNL     1      -3.839  -5.295   1.276  1.00  0.00    -0.382 N 
ATOM     12  H   UNL     1      -2.914  -5.298   1.690  1.00  0.00     0.158 HD
ATOM     13  H   UNL     1      -4.579  -5.786   1.762  1.00  0.00     0.158 HD
ENDBRANCH   1  11
BRANCH   9  14
ATOM     14  C   UNL     1      -2.856   0.365  -0.654  1.00  0.00     0.167 C 
ATOM     15  O   UNL     1      -1.725   1.134  -0.159  1.00  0.00    -0.347 OA
ATOM     16  C   UNL     1      -4.099   1.181  -0.267  1.00  0.00     0.128 C 
ATOM     17  H   UNL     1      -2.758   0.261  -1.743  1.00  0.00     0.088 H 
ATOM     18  C   UNL     1      -2.156   2.490   0.101  1.00  0.00     0.112 C 
ATOM     19  C   UNL     1      -3.586   2.601  -0.417  1.00  0.00     0.113 C 
ATOM     20  H   UNL     1      -4.395   1.001   0.775  1.00  0.00     0.068 H 
ATOM     21  H   UNL     1      -1.490   3.169  -0.444  1.00  0.00     0.066 H 
ATOM     22  H   UNL     1      -4.202   3.344   0.096  1.00  0.00     0.066 H 
BRANCH  16  23
ATOM     23  O   UNL     1      -5.233   0.994  -1.116  1.00  0.00    -0.386 OA
ATOM     24  H   UNL     1      -5.494   0.055  -1.008  1.00  0.00     0.211 HD
ENDBRANCH  16  23
BRANCH  18  25
ATOM     25  C   UNL     1      -2.035   2.753   1.608  1.00  0.00     0.072 C 
ATOM     26  H   UNL     1      -2.680   2.088   2.195  1.00  0.00     0.059 H 
ATOM     27  H   UNL     1      -1.007   2.547   1.931  1.00  0.00     0.059 H 
BRANCH  25  28
ATOM     28  O   UNL     1      -2.331   4.104   1.936  1.00  0.00    -0.394 OA
ATOM     29  H   UNL     1      -3.291   4.198   2.046  1.00  0.00     0.210 HD
ENDBRANCH  25  28
ENDBRANCH  18  25
BRANCH  19  30
ATOM     30  O   UNL     1      -3.583   2.945  -1.811  1.00  0.00    -0.387 OA
ATOM     31  H   UNL     1      -4.449   2.638  -2.155  1.00  0.00     0.211 HD
ENDBRANCH  19  30
ENDBRANCH   9  14
BRANCH   8  32
ATOM     32  N   UNL     1      -0.432  -1.206   0.049  1.00  0.00    -0.351 N 
ATOM     33  H   UNL     1      -0.326  -0.191  -0.022  1.00  0.00     0.163 HD
BRANCH  32  34
ATOM     34  C   UNL     1       0.694  -1.895   0.648  1.00  0.00     0.043 C 
ATOM     35  H   UNL     1       0.748  -2.937   0.308  1.00  0.00     0.054 H 
ATOM     36  H   UNL     1       0.587  -1.912   1.740  1.00  0.00     0.054 H 
BRANCH  34  37
ATOM     37  C   UNL     1       1.975  -1.194   0.263  1.00  0.00    -0.029 A 
ATOM     38  C   UNL     1       2.429  -1.226  -1.062  1.00  0.00    -0.057 A 
ATOM     39  C   UNL     1       2.730  -0.497   1.216  1.00  0.00    -0.057 A 
ATOM     40  C   UNL     1       3.614  -0.579  -1.425  1.00  0.00    -0.054 A 
ATOM     41  H   UNL     1       1.851  -1.752  -1.821  1.00  0.00     0.063 H 
ATOM     42  C   UNL     1       3.916   0.148   0.849  1.00  0.00    -0.054 A 
ATOM     43  H   UNL     1       2.405  -0.453   2.253  1.00  0.00     0.063 H 
ATOM     44  C   UNL     1       4.380   0.117  -0.476  1.00  0.00    -0.018 A 
ATOM     45  H   UNL     1       3.930  -0.611  -2.465  1.00  0.00     0.063 H 
ATOM     46  H   UNL     1       4.488   0.669   1.614  1.00  0.00     0.063 H 
BRANCH  44  47
ATOM     47  C   UNL     1       5.629   0.795  -0.859  1.00  0.00    -0.018 A 
ATOM     48  C   UNL     1       6.653   0.103  -1.531  1.00  0.00    -0.054 A 
ATOM     49  C   UNL     1       5.835   2.156  -0.567  1.00  0.00    -0.054 A 
ATOM     50  C   UNL     1       7.839   0.747  -1.895  1.00  0.00    -0.062 A 
ATOM     51  H   UNL     1       6.534  -0.952  -1.765  1.00  0.00     0.063 H 
ATOM     52  C   UNL     1       7.020   2.800  -0.932  1.00  0.00    -0.062 A 
ATOM     53  H   UNL     1       5.061   2.727  -0.059  1.00  0.00     0.063 H 
ATOM     54  C   UNL     1       8.022   2.095  -1.594  1.00  0.00    -0.062 A 
ATOM     55  H   UNL     1       8.617   0.194  -2.413  1.00  0.00     0.062 H 
ATOM     56  H   UNL     1       7.159   3.852  -0.697  1.00  0.00     0.062 H 
ATOM     57  H   UNL     1       8.945   2.595  -1.877  1.00  0.00     0.062 H 
ENDBRANCH  44  47
ENDBRANCH  34  37
ENDBRANCH  32  34
ENDBRANCH   8  32
TORSDOF 10
