REMARK SMILES Nc1ncnc2c1nc(NCc1ccc(-c3ccccc3)cc1)n2[C@@H]1O[C@H](CO)[C@@H](O)[C@H]1O
REMARK SMILES IDX 2 1 3 2 4 3 5 4 6 5 7 6 8 7 9 8 24 9 1 11 25 14 26 15 32 16
REMARK SMILES IDX 27 18 30 19 33 23 28 25 29 28 31 30 10 32 11 34 12 37 13 38
REMARK SMILES IDX 23 39 14 40 22 42 15 44 16 47 17 48 21 49 18 50 20 52 19 54
REMARK H PARENT 4 10 1 12 1 13 25 17 32 20 27 21 30 22 33 24 28 26 28 27 29 29
REMARK H PARENT 31 31 10 33 11 35 11 36 13 41 23 43 14 45 22 46 17 51 21 53
REMARK H PARENT 18 55 20 56 19 57
REMARK Flexibility Score: inf
ROOT
ATOM      1  C   UNL     1      14.894  30.921  -9.312  1.00  0.00     0.155 A 
ATOM      2  N   UNL     1      13.574  31.140  -9.503  1.00  0.00    -0.217 NA
ATOM      3  C   UNL     1      13.187  32.337  -9.984  1.00  0.00     0.120 A 
ATOM      4  N   UNL     1      13.954  33.406 -10.291  1.00  0.00    -0.216 NA
ATOM      5  C   UNL     1      15.255  33.148 -10.058  1.00  0.00     0.169 A 
ATOM      6  C   UNL     1      15.793  31.963  -9.589  1.00  0.00     0.152 A 
ATOM      7  N   UNL     1      17.159  32.053  -9.483  1.00  0.00    -0.207 NA
ATOM      8  C   UNL     1      17.463  33.257  -9.912  1.00  0.00     0.207 A 
ATOM      9  N   UNL     1      16.331  33.988 -10.226  1.00  0.00    -0.265 N 
ATOM     10  H   UNL     1       0.000   0.000   0.000  1.00  0.00     0.106 H 
ENDROOT
BRANCH   1  11
ATOM     11  N   UNL     1      15.293  29.680  -8.838  1.00  0.00    -0.382 N 
ATOM     12  H   UNL     1       0.000   0.000   0.000  1.00  0.00     0.158 HD
ATOM     13  H   UNL     1       0.000   0.000   0.000  1.00  0.00     0.158 HD
ENDBRANCH   1  11
BRANCH   9  14
ATOM     14  C   UNL     1      16.277  35.340 -10.768  1.00  0.00     0.167 C 
ATOM     15  O   UNL     1      17.408  36.109 -10.274  1.00  0.00    -0.347 OA
ATOM     16  C   UNL     1      15.033  36.157 -10.381  1.00  0.00     0.128 C 
ATOM     17  H   UNL     1       0.000   0.000   0.000  1.00  0.00     0.088 H 
ATOM     18  C   UNL     1      16.977  37.466 -10.013  1.00  0.00     0.112 C 
ATOM     19  C   UNL     1      15.547  37.576 -10.532  1.00  0.00     0.113 C 
ATOM     20  H   UNL     1       0.000   0.000   0.000  1.00  0.00     0.068 H 
ATOM     21  H   UNL     1       0.000   0.000   0.000  1.00  0.00     0.066 H 
ATOM     22  H   UNL     1       0.000   0.000   0.000  1.00  0.00     0.066 H 
BRANCH  16  23
ATOM     23  O   UNL     1      13.900  35.969 -11.231  1.00  0.00    -0.386 OA
ATOM     24  H   UNL     1       0.000   0.000   0.000  1.00  0.00     0.211 HD
ENDBRANCH  16  23
BRANCH  18  25
ATOM     25  C   UNL     1      17.098  37.728  -8.506  1.00  0.00     0.072 C 
ATOM     26  H   UNL     1       0.000   0.000   0.000  1.00  0.00     0.059 H 
ATOM     27  H   UNL     1       0.000   0.000   0.000  1.00  0.00     0.059 H 
BRANCH  25  28
ATOM     28  O   UNL     1      16.801  39.079  -8.178  1.00  0.00    -0.394 OA
ATOM     29  H   UNL     1       0.000   0.000   0.000  1.00  0.00     0.210 HD
ENDBRANCH  25  28
ENDBRANCH  18  25
BRANCH  19  30
ATOM     30  O   UNL     1      15.549  37.920 -11.926  1.00  0.00    -0.387 OA
ATOM     31  H   UNL     1       0.000   0.000   0.000  1.00  0.00     0.211 HD
ENDBRANCH  19  30
ENDBRANCH   9  14
BRANCH   8  32
ATOM     32  N   UNL     1      18.700  33.769 -10.065  1.00  0.00    -0.351 N 
ATOM     33  H   UNL     1       0.000   0.000   0.000  1.00  0.00     0.163 HD
BRANCH  32  34
ATOM     34  C   UNL     1      19.826  33.080  -9.466  1.00  0.00     0.043 C 
ATOM     35  H   UNL     1       0.000   0.000   0.000  1.00  0.00     0.054 H 
ATOM     36  H   UNL     1       0.000   0.000   0.000  1.00  0.00     0.054 H 
BRANCH  34  37
ATOM     37  C   UNL     1      21.108  33.781  -9.851  1.00  0.00    -0.029 A 
ATOM     38  C   UNL     1      21.561  33.749 -11.176  1.00  0.00    -0.057 A 
ATOM     39  C   UNL     1      21.862  34.478  -8.898  1.00  0.00    -0.057 A 
ATOM     40  C   UNL     1      22.746  34.396 -11.539  1.00  0.00    -0.054 A 
ATOM     41  H   UNL     1       0.000   0.000   0.000  1.00  0.00     0.063 H 
ATOM     42  C   UNL     1      23.048  35.123  -9.266  1.00  0.00    -0.054 A 
ATOM     43  H   UNL     1       0.000   0.000   0.000  1.00  0.00     0.063 H 
ATOM     44  C   UNL     1      23.512  35.092 -10.590  1.00  0.00    -0.018 A 
ATOM     45  H   UNL     1       0.000   0.000   0.000  1.00  0.00     0.063 H 
ATOM     46  H   UNL     1       0.000   0.000   0.000  1.00  0.00     0.063 H 
BRANCH  44  47
ATOM     47  C   UNL     1      24.762  35.771 -10.974  1.00  0.00    -0.018 A 
ATOM     48  C   UNL     1      25.785  35.078 -11.645  1.00  0.00    -0.054 A 
ATOM     49  C   UNL     1      24.967  37.131 -10.682  1.00  0.00    -0.054 A 
ATOM     50  C   UNL     1      26.971  35.722 -12.009  1.00  0.00    -0.062 A 
ATOM     51  H   UNL     1       0.000   0.000   0.000  1.00  0.00     0.063 H 
ATOM     52  C   UNL     1      26.152  37.776 -11.046  1.00  0.00    -0.062 A 
ATOM     53  H   UNL     1       0.000   0.000   0.000  1.00  0.00     0.063 H 
ATOM     54  C   UNL     1      27.155  37.070 -11.709  1.00  0.00    -0.062 A 
ATOM     55  H   UNL     1       0.000   0.000   0.000  1.00  0.00     0.062 H 
ATOM     56  H   UNL     1       0.000   0.000   0.000  1.00  0.00     0.062 H 
ATOM     57  H   UNL     1       0.000   0.000   0.000  1.00  0.00     0.062 H 
ENDBRANCH  44  47
ENDBRANCH  34  37
ENDBRANCH  32  34
ENDBRANCH   8  32
TORSDOF 10
