REMARK SMILES CC(C)N(CCc1c[nH]c2ccccc12)C(C)C
REMARK SMILES IDX 5 1 4 4 2 5 1 7 3 11 16 15 17 17 18 21 6 25 7 28 8 29 15 30
REMARK SMILES IDX 9 31 10 33 14 34 11 36 13 37 12 39
REMARK H PARENT 5 2 5 3 2 6 1 8 1 9 1 10 3 12 3 13 3 14 16 16 17 18 17 19
REMARK H PARENT 17 20 18 22 18 23 18 24 6 26 6 27 8 32 9 35 14 38 11 40 13 41
REMARK H PARENT 12 42
REMARK Flexibility Score: inf
ROOT
ATOM      1  C   UNL     1      17.706  34.654 -10.887  1.00  0.00     0.003 C 
ATOM      2  H   UNL     1       0.000   0.000   0.000  1.00  0.00     0.043 H 
ATOM      3  H   UNL     1       0.000   0.000   0.000  1.00  0.00     0.043 H 
ENDROOT
BRANCH   1   4
ATOM      4  N   UNL     1      16.246  34.858 -10.806  1.00  0.00    -0.298 NA
BRANCH   4   5
ATOM      5  C   UNL     1      15.470  33.668 -10.377  1.00  0.00     0.004 C 
ATOM      6  H   UNL     1       0.000   0.000   0.000  1.00  0.00     0.046 H 
BRANCH   5   7
ATOM      7  C   UNL     1      13.956  33.849 -10.587  1.00  0.00    -0.050 C 
ATOM      8  H   UNL     1       0.000   0.000   0.000  1.00  0.00     0.025 H 
ATOM      9  H   UNL     1       0.000   0.000   0.000  1.00  0.00     0.025 H 
ATOM     10  H   UNL     1       0.000   0.000   0.000  1.00  0.00     0.025 H 
ENDBRANCH   5   7
BRANCH   5  11
ATOM     11  C   UNL     1      15.874  32.384 -11.127  1.00  0.00    -0.050 C 
ATOM     12  H   UNL     1       0.000   0.000   0.000  1.00  0.00     0.025 H 
ATOM     13  H   UNL     1       0.000   0.000   0.000  1.00  0.00     0.025 H 
ATOM     14  H   UNL     1       0.000   0.000   0.000  1.00  0.00     0.025 H 
ENDBRANCH   5  11
ENDBRANCH   4   5
BRANCH   4  15
ATOM     15  C   UNL     1      15.794  36.152 -10.244  1.00  0.00     0.004 C 
ATOM     16  H   UNL     1       0.000   0.000   0.000  1.00  0.00     0.046 H 
BRANCH  15  17
ATOM     17  C   UNL     1      15.725  36.234  -8.713  1.00  0.00    -0.050 C 
ATOM     18  H   UNL     1       0.000   0.000   0.000  1.00  0.00     0.025 H 
ATOM     19  H   UNL     1       0.000   0.000   0.000  1.00  0.00     0.025 H 
ATOM     20  H   UNL     1       0.000   0.000   0.000  1.00  0.00     0.025 H 
ENDBRANCH  15  17
BRANCH  15  21
ATOM     21  C   UNL     1      16.569  37.366 -10.781  1.00  0.00    -0.050 C 
ATOM     22  H   UNL     1       0.000   0.000   0.000  1.00  0.00     0.025 H 
ATOM     23  H   UNL     1       0.000   0.000   0.000  1.00  0.00     0.025 H 
ATOM     24  H   UNL     1       0.000   0.000   0.000  1.00  0.00     0.025 H 
ENDBRANCH  15  21
ENDBRANCH   4  15
ENDBRANCH   1   4
BRANCH   1  25
ATOM     25  C   UNL     1      18.451  34.321  -9.583  1.00  0.00    -0.013 C 
ATOM     26  H   UNL     1       0.000   0.000   0.000  1.00  0.00     0.033 H 
ATOM     27  H   UNL     1       0.000   0.000   0.000  1.00  0.00     0.033 H 
BRANCH  25  28
ATOM     28  C   UNL     1      19.886  33.961  -9.831  1.00  0.00    -0.021 A 
ATOM     29  C   UNL     1      20.404  32.685  -9.937  1.00  0.00     0.005 A 
ATOM     30  C   UNL     1      20.980  34.870 -10.005  1.00  0.00     0.003 A 
ATOM     31  N   UNL     1      21.750  32.785 -10.166  1.00  0.00    -0.361 N 
ATOM     32  H   UNL     1       0.000   0.000   0.000  1.00  0.00     0.082 H 
ATOM     33  C   UNL     1      22.129  34.106 -10.213  1.00  0.00     0.046 A 
ATOM     34  C   UNL     1      21.098  36.275 -10.007  1.00  0.00    -0.053 A 
ATOM     35  H   UNL     1       0.000   0.000   0.000  1.00  0.00     0.166 HD
ATOM     36  C   UNL     1      23.390  34.676 -10.422  1.00  0.00    -0.038 A 
ATOM     37  C   UNL     1      22.352  36.862 -10.215  1.00  0.00    -0.062 A 
ATOM     38  H   UNL     1       0.000   0.000   0.000  1.00  0.00     0.063 H 
ATOM     39  C   UNL     1      23.480  36.071 -10.419  1.00  0.00    -0.060 A 
ATOM     40  H   UNL     1       0.000   0.000   0.000  1.00  0.00     0.064 H 
ATOM     41  H   UNL     1       0.000   0.000   0.000  1.00  0.00     0.062 H 
ATOM     42  H   UNL     1       0.000   0.000   0.000  1.00  0.00     0.062 H 
ENDBRANCH  25  28
ENDBRANCH   1  25
TORSDOF 9
