
     RDKit          3D

 42 43  0  0  0  0  0  0  0  0999 V2000
   -4.2303   -0.9716   -0.4069 C   0  0  0  0  0  0  0  0  0  0  0  0
   -2.7155   -1.1528   -0.1971 C   0  0  0  0  0  0  0  0  0  0  0  0
   -2.3117   -2.4365   -0.9471 C   0  0  0  0  0  0  0  0  0  0  0  0
   -1.9399    0.0374   -0.6255 N   0  0  0  0  0  0  0  0  0  0  0  0
   -0.4797   -0.1670   -0.7070 C   0  0  0  0  0  0  0  0  0  0  0  0
    0.2650   -0.4998    0.5972 C   0  0  0  0  0  0  0  0  0  0  0  0
    1.7003   -0.8591    0.3494 C   0  0  0  0  0  0  0  0  0  0  0  0
    2.2187   -2.1353    0.2437 C   0  0  0  0  0  0  0  0  0  0  0  0
    3.5643   -2.0353    0.0144 N   0  0  0  0  0  0  0  0  0  0  0  0
    3.9430   -0.7143   -0.0326 C   0  0  0  0  0  0  0  0  0  0  0  0
    5.2046   -0.1445   -0.2422 C   0  0  0  0  0  0  0  0  0  0  0  0
    5.2942    1.2505   -0.2392 C   0  0  0  0  0  0  0  0  0  0  0  0
    4.1661    2.0411   -0.0346 C   0  0  0  0  0  0  0  0  0  0  0  0
    2.9125    1.4545    0.1738 C   0  0  0  0  0  0  0  0  0  0  0  0
    2.7942    0.0493    0.1756 C   0  0  0  0  0  0  0  0  0  0  0  0
   -2.3915    1.3315   -0.0638 C   0  0  0  0  0  0  0  0  0  0  0  0
   -2.4606    1.4133    1.4676 C   0  0  0  0  0  0  0  0  0  0  0  0
   -1.6168    2.5458   -0.6007 C   0  0  0  0  0  0  0  0  0  0  0  0
   -4.6483   -0.1985    0.2444 H   0  0  0  0  0  0  0  0  0  0  0  0
   -4.7699   -1.8962   -0.1717 H   0  0  0  0  0  0  0  0  0  0  0  0
   -4.4581   -0.7088   -1.4461 H   0  0  0  0  0  0  0  0  0  0  0  0
   -2.5463   -1.3389    0.8702 H   0  0  0  0  0  0  0  0  0  0  0  0
   -2.9733   -3.2686   -0.6802 H   0  0  0  0  0  0  0  0  0  0  0  0
   -2.3718   -2.2989   -2.0325 H   0  0  0  0  0  0  0  0  0  0  0  0
   -1.2971   -2.7578   -0.6921 H   0  0  0  0  0  0  0  0  0  0  0  0
   -0.2813   -0.9571   -1.4426 H   0  0  0  0  0  0  0  0  0  0  0  0
   -0.0040    0.7008   -1.1789 H   0  0  0  0  0  0  0  0  0  0  0  0
    0.2414    0.3550    1.2787 H   0  0  0  0  0  0  0  0  0  0  0  0
   -0.2202   -1.3333    1.1177 H   0  0  0  0  0  0  0  0  0  0  0  0
    1.7425   -3.1044    0.3108 H   0  0  0  0  0  0  0  0  0  0  0  0
    4.1949   -2.8154   -0.1050 H   0  0  0  0  0  0  0  0  0  0  0  0
    6.0853   -0.7575   -0.4023 H   0  0  0  0  0  0  0  0  0  0  0  0
    6.2598    1.7245   -0.3997 H   0  0  0  0  0  0  0  0  0  0  0  0
    4.2574    3.1243   -0.0366 H   0  0  0  0  0  0  0  0  0  0  0  0
    2.0399    2.0809    0.3317 H   0  0  0  0  0  0  0  0  0  0  0  0
   -3.4128    1.4899   -0.4316 H   0  0  0  0  0  0  0  0  0  0  0  0
   -3.0635    0.6104    1.9005 H   0  0  0  0  0  0  0  0  0  0  0  0
   -1.4730    1.3875    1.9320 H   0  0  0  0  0  0  0  0  0  0  0  0
   -2.9312    2.3561    1.7706 H   0  0  0  0  0  0  0  0  0  0  0  0
   -2.1308    3.4748   -0.3282 H   0  0  0  0  0  0  0  0  0  0  0  0
   -1.5530    2.5208   -1.6941 H   0  0  0  0  0  0  0  0  0  0  0  0
   -0.6037    2.6033   -0.1893 H   0  0  0  0  0  0  0  0  0  0  0  0
  1  2  1  0
  2  3  1  0
  2  4  1  0
  4  5  1  0
  5  6  1  0
  6  7  1  0
  7  8  2  0
  8  9  1  0
  9 10  1  0
 10 11  2  0
 11 12  1  0
 12 13  2  0
 13 14  1  0
 14 15  2  0
  4 16  1  0
 16 17  1  0
 16 18  1  0
 15  7  1  0
 15 10  1  0
  1 19  1  0
  1 20  1  0
  1 21  1  0
  2 22  1  0
  3 23  1  0
  3 24  1  0
  3 25  1  0
  5 26  1  0
  5 27  1  0
  6 28  1  0
  6 29  1  0
  8 30  1  0
  9 31  1  0
 11 32  1  0
 12 33  1  0
 13 34  1  0
 14 35  1  0
 16 36  1  0
 17 37  1  0
 17 38  1  0
 17 39  1  0
 18 40  1  0
 18 41  1  0
 18 42  1  0
M  END
