REMARK SMILES CC(C)(C)c1ccc(N(C(=O)c2ccncc2)C(C(=O)NCCc2cccc(F)c2)c2cccnc2)cc1
REMARK SMILES IDX 18 1 9 3 8 4 5 5 6 6 38 7 7 8 37 10 2 14 1 15 3 19 4 23
REMARK SMILES IDX 10 27 11 28 12 29 13 30 17 31 14 32 16 34 15 36 19 39 20 40
REMARK SMILES IDX 21 41 22 43 23 46 24 49 25 50 30 51 26 52 28 54 27 56 29 58
REMARK SMILES IDX 31 60 32 61 36 62 33 63 35 65 34 67
REMARK H PARENT 18 2 6 9 38 11 7 12 37 13 1 16 1 17 1 18 3 20 3 21 3 22 4 24
REMARK H PARENT 4 25 4 26 13 33 17 35 14 37 16 38 21 42 22 44 22 45 23 47
REMARK H PARENT 23 48 25 53 30 55 26 57 27 59 32 64 36 66 33 68 34 69
REMARK Flexibility Score: inf
ROOT
ATOM      1  C   UNL     1       0.933  -1.714   0.803  1.00  0.00     0.142 C 
ATOM      2  H   UNL     1       0.430  -2.381   0.083  1.00  0.00     0.069 H 
ENDROOT
BRANCH   1   3
ATOM      3  N   UNL     1       0.210  -0.412   0.794  1.00  0.00    -0.292 N 
BRANCH   3   4
ATOM      4  C   UNL     1      -1.035  -0.389   0.090  1.00  0.00     0.045 A 
ATOM      5  C   UNL     1      -3.514  -0.414  -1.319  1.00  0.00    -0.042 A 
ATOM      6  C   UNL     1      -2.333  -0.906  -1.903  1.00  0.00    -0.056 A 
ATOM      7  C   UNL     1      -3.414   0.102  -0.017  1.00  0.00    -0.056 A 
ATOM      8  C   UNL     1      -1.117  -0.898  -1.210  1.00  0.00    -0.038 A 
ATOM      9  H   UNL     1      -2.340  -1.304  -2.918  1.00  0.00     0.063 H 
ATOM     10  C   UNL     1      -2.197   0.114   0.678  1.00  0.00    -0.038 A 
ATOM     11  H   UNL     1      -4.281   0.506   0.497  1.00  0.00     0.063 H 
ATOM     12  H   UNL     1      -0.229  -1.265  -1.725  1.00  0.00     0.064 H 
ATOM     13  H   UNL     1      -2.195   0.491   1.699  1.00  0.00     0.064 H 
BRANCH   5  14
ATOM     14  C   UNL     1      -4.838  -0.452  -2.103  1.00  0.00    -0.013 C 
BRANCH  14  15
ATOM     15  C   UNL     1      -4.716   0.430  -3.364  1.00  0.00    -0.056 C 
ATOM     16  H   UNL     1      -4.472   1.467  -3.104  1.00  0.00     0.024 H 
ATOM     17  H   UNL     1      -5.655   0.434  -3.928  1.00  0.00     0.024 H 
ATOM     18  H   UNL     1      -3.937   0.074  -4.048  1.00  0.00     0.024 H 
ENDBRANCH  14  15
BRANCH  14  19
ATOM     19  C   UNL     1      -6.057   0.057  -1.300  1.00  0.00    -0.056 C 
ATOM     20  H   UNL     1      -5.943   1.110  -1.013  1.00  0.00     0.024 H 
ATOM     21  H   UNL     1      -6.206  -0.531  -0.387  1.00  0.00     0.024 H 
ATOM     22  H   UNL     1      -6.981  -0.017  -1.889  1.00  0.00     0.024 H 
ENDBRANCH  14  19
BRANCH  14  23
ATOM     23  C   UNL     1      -5.153  -1.903  -2.534  1.00  0.00    -0.056 C 
ATOM     24  H   UNL     1      -6.097  -1.952  -3.088  1.00  0.00     0.024 H 
ATOM     25  H   UNL     1      -4.381  -2.320  -3.190  1.00  0.00     0.024 H 
ATOM     26  H   UNL     1      -5.237  -2.566  -1.665  1.00  0.00     0.024 H 
ENDBRANCH  14  23
ENDBRANCH   5  14
ENDBRANCH   3   4
BRANCH   3  27
ATOM     27  C   UNL     1       0.676   0.628   1.609  1.00  0.00     0.259 C 
ATOM     28  O   UNL     1       1.594   0.487   2.420  1.00  0.00    -0.269 OA
BRANCH  27  29
ATOM     29  C   UNL     1       0.135   2.004   1.472  1.00  0.00     0.043 A 
ATOM     30  C   UNL     1      -0.071   2.590   0.225  1.00  0.00    -0.031 A 
ATOM     31  C   UNL     1      -0.077   2.750   2.631  1.00  0.00    -0.031 A 
ATOM     32  C   UNL     1      -0.508   3.905   0.193  1.00  0.00     0.028 A 
ATOM     33  H   UNL     1       0.129   2.062  -0.701  1.00  0.00     0.065 H 
ATOM     34  C   UNL     1      -0.519   4.053   2.493  1.00  0.00     0.028 A 
ATOM     35  H   UNL     1       0.112   2.335   3.614  1.00  0.00     0.065 H 
ATOM     36  N   UNL     1      -0.748   4.641   1.298  1.00  0.00    -0.265 NA
ATOM     37  H   UNL     1      -0.676   4.415  -0.752  1.00  0.00     0.084 H 
ATOM     38  H   UNL     1      -0.704   4.680   3.360  1.00  0.00     0.084 H 
ENDBRANCH  27  29
ENDBRANCH   3  27
ENDBRANCH   1   3
BRANCH   1  39
ATOM     39  C   UNL     1       2.367  -1.547   0.227  1.00  0.00     0.247 C 
ATOM     40  O   UNL     1       2.608  -1.780  -0.953  1.00  0.00    -0.272 OA
ATOM     41  N   UNL     1       3.318  -1.110   1.127  1.00  0.00    -0.354 N 
ATOM     42  H   UNL     1       2.967  -0.653   1.971  1.00  0.00     0.163 HD
BRANCH  41  43
ATOM     43  C   UNL     1       4.705  -0.890   0.773  1.00  0.00     0.021 C 
ATOM     44  H   UNL     1       4.971  -1.516  -0.085  1.00  0.00     0.049 H 
ATOM     45  H   UNL     1       5.290  -1.243   1.633  1.00  0.00     0.049 H 
BRANCH  43  46
ATOM     46  C   UNL     1       5.034   0.586   0.523  1.00  0.00    -0.010 C 
ATOM     47  H   UNL     1       4.686   1.182   1.376  1.00  0.00     0.033 H 
ATOM     48  H   UNL     1       6.125   0.706   0.494  1.00  0.00     0.033 H 
BRANCH  46  49
ATOM     49  C   UNL     1       4.466   1.152  -0.757  1.00  0.00    -0.043 A 
ATOM     50  C   UNL     1       4.887   0.665  -2.005  1.00  0.00    -0.059 A 
ATOM     51  C   UNL     1       3.526   2.187  -0.719  1.00  0.00    -0.023 A 
ATOM     52  C   UNL     1       4.362   1.192  -3.188  1.00  0.00    -0.059 A 
ATOM     53  H   UNL     1       5.617  -0.136  -2.067  1.00  0.00     0.063 H 
ATOM     54  C   UNL     1       3.010   2.703  -1.903  1.00  0.00     0.123 A 
ATOM     55  H   UNL     1       3.183   2.596   0.228  1.00  0.00     0.066 H 
ATOM     56  C   UNL     1       3.419   2.214  -3.137  1.00  0.00    -0.026 A 
ATOM     57  H   UNL     1       4.690   0.799  -4.148  1.00  0.00     0.062 H 
ATOM     58  F   UNL     1       2.095   3.683  -1.858  1.00  0.00    -0.207 F 
ATOM     59  H   UNL     1       3.001   2.630  -4.048  1.00  0.00     0.065 H 
ENDBRANCH  46  49
ENDBRANCH  43  46
ENDBRANCH  41  43
ENDBRANCH   1  39
BRANCH   1  60
ATOM     60  C   UNL     1       0.873  -2.531   2.093  1.00  0.00     0.003 A 
ATOM     61  C   UNL     1       0.130  -2.179   3.226  1.00  0.00    -0.053 A 
ATOM     62  C   UNL     1       1.538  -3.760   2.142  1.00  0.00     0.033 A 
ATOM     63  C   UNL     1       0.117  -3.018   4.340  1.00  0.00    -0.043 A 
ATOM     64  H   UNL     1      -0.433  -1.251   3.269  1.00  0.00     0.063 H 
ATOM     65  N   UNL     1       1.527  -4.603   3.200  1.00  0.00    -0.264 NA
ATOM     66  H   UNL     1       2.111  -4.129   1.289  1.00  0.00     0.084 H 
ATOM     67  C   UNL     1       0.822  -4.208   4.276  1.00  0.00     0.027 A 
ATOM     68  H   UNL     1      -0.437  -2.756   5.236  1.00  0.00     0.064 H 
ATOM     69  H   UNL     1       0.839  -4.897   5.116  1.00  0.00     0.084 H 
ENDBRANCH   1  60
TORSDOF 13
