REMARK SMILES C=CCn1c(C)cc(C2=NN=C(NC(C)(C)C)SC2)c1C
REMARK SMILES IDX 9 1 10 2 11 3 12 4 13 5 18 6 19 7 8 11 4 12 5 13 20 14 7 15
REMARK SMILES IDX 3 17 2 20 1 21 6 25 21 29 14 33 15 34 16 38 17 42
REMARK H PARENT 13 8 19 9 19 10 7 16 3 18 3 19 1 22 1 23 2 24 6 26 6 27 6 28
REMARK H PARENT 21 30 21 31 21 32 15 35 15 36 15 37 16 39 16 40 16 41 17 43
REMARK H PARENT 17 44 17 45
REMARK Flexibility Score: inf
ROOT
ATOM      1  C   UNL     1      18.872  34.810 -10.089  1.00  0.00     0.082 C 
ATOM      2  N   UNL     1      18.005  33.842 -10.032  1.00  0.00    -0.151 NA
ATOM      3  N   UNL     1      16.652  34.130  -9.784  1.00  0.00    -0.125 NA
ATOM      4  C   UNL     1      16.097  35.230 -10.187  1.00  0.00     0.183 C 
ATOM      5  N   UNL     1      14.771  35.550 -10.070  1.00  0.00    -0.359 N 
ATOM      6  S   UNL     1      16.994  36.534 -10.936  1.00  0.00    -0.080 SA
ATOM      7  C   UNL     1      18.492  36.258  -9.967  1.00  0.00     0.046 C 
ATOM      8  H   UNL     1       0.000   0.000   0.000  1.00  0.00     0.163 HD
ATOM      9  H   UNL     1       0.000   0.000   0.000  1.00  0.00     0.045 H 
ATOM     10  H   UNL     1       0.000   0.000   0.000  1.00  0.00     0.045 H 
ENDROOT
BRANCH   1  11
ATOM     11  C   UNL     1      20.267  34.411 -10.297  1.00  0.00     0.020 A 
ATOM     12  N   UNL     1      22.512  34.336 -10.338  1.00  0.00    -0.345 N 
ATOM     13  C   UNL     1      22.070  33.232 -11.038  1.00  0.00     0.016 A 
ATOM     14  C   UNL     1      21.424  35.047  -9.850  1.00  0.00     0.024 A 
ATOM     15  C   UNL     1      20.693  33.251 -11.003  1.00  0.00    -0.032 A 
ATOM     16  H   UNL     1       0.000   0.000   0.000  1.00  0.00     0.065 H 
BRANCH  12  17
ATOM     17  C   UNL     1      23.921  34.688 -10.136  1.00  0.00     0.040 C 
ATOM     18  H   UNL     1       0.000   0.000   0.000  1.00  0.00     0.054 H 
ATOM     19  H   UNL     1       0.000   0.000   0.000  1.00  0.00     0.054 H 
BRANCH  17  20
ATOM     20  C   UNL     1      24.360  35.785 -11.064  1.00  0.00    -0.072 C 
ATOM     21  C   UNL     1      24.934  36.930 -10.672  1.00  0.00    -0.101 C 
ATOM     22  H   UNL     1       0.000   0.000   0.000  1.00  0.00     0.054 H 
ATOM     23  H   UNL     1       0.000   0.000   0.000  1.00  0.00     0.054 H 
ATOM     24  H   UNL     1       0.000   0.000   0.000  1.00  0.00     0.059 H 
ENDBRANCH  17  20
ENDBRANCH  12  17
BRANCH  13  25
ATOM     25  C   UNL     1      22.967  32.240 -11.689  1.00  0.00    -0.024 C 
ATOM     26  H   UNL     1       0.000   0.000   0.000  1.00  0.00     0.029 H 
ATOM     27  H   UNL     1       0.000   0.000   0.000  1.00  0.00     0.029 H 
ATOM     28  H   UNL     1       0.000   0.000   0.000  1.00  0.00     0.029 H 
ENDBRANCH  13  25
BRANCH  14  29
ATOM     29  C   UNL     1      21.587  36.262  -8.996  1.00  0.00    -0.024 C 
ATOM     30  H   UNL     1       0.000   0.000   0.000  1.00  0.00     0.030 H 
ATOM     31  H   UNL     1       0.000   0.000   0.000  1.00  0.00     0.030 H 
ATOM     32  H   UNL     1       0.000   0.000   0.000  1.00  0.00     0.030 H 
ENDBRANCH  14  29
ENDBRANCH   1  11
BRANCH   5  33
ATOM     33  C   UNL     1      13.686  34.610  -9.794  1.00  0.00     0.031 C 
BRANCH  33  34
ATOM     34  C   UNL     1      12.373  35.416  -9.797  1.00  0.00    -0.042 C 
ATOM     35  H   UNL     1       0.000   0.000   0.000  1.00  0.00     0.025 H 
ATOM     36  H   UNL     1       0.000   0.000   0.000  1.00  0.00     0.025 H 
ATOM     37  H   UNL     1       0.000   0.000   0.000  1.00  0.00     0.025 H 
ENDBRANCH  33  34
BRANCH  33  38
ATOM     38  C   UNL     1      13.611  33.541 -10.891  1.00  0.00    -0.042 C 
ATOM     39  H   UNL     1       0.000   0.000   0.000  1.00  0.00     0.025 H 
ATOM     40  H   UNL     1       0.000   0.000   0.000  1.00  0.00     0.025 H 
ATOM     41  H   UNL     1       0.000   0.000   0.000  1.00  0.00     0.025 H 
ENDBRANCH  33  38
BRANCH  33  42
ATOM     42  C   UNL     1      13.851  33.968  -8.411  1.00  0.00    -0.042 C 
ATOM     43  H   UNL     1       0.000   0.000   0.000  1.00  0.00     0.025 H 
ATOM     44  H   UNL     1       0.000   0.000   0.000  1.00  0.00     0.025 H 
ATOM     45  H   UNL     1       0.000   0.000   0.000  1.00  0.00     0.025 H 
ENDBRANCH  33  42
ENDBRANCH   5  33
TORSDOF 9
