REMARK SMILES C=CCn1c(C)cc(C2=NN=C(NC(C)(C)C)SC2)c1C
REMARK SMILES IDX 9 1 10 2 11 3 12 4 13 5 18 6 19 7 8 11 4 12 5 13 20 14 7 15
REMARK SMILES IDX 3 17 2 20 1 21 6 25 21 29 14 33 15 34 16 38 17 42
REMARK H PARENT 13 8 19 9 19 10 7 16 3 18 3 19 1 22 1 23 2 24 6 26 6 27 6 28
REMARK H PARENT 21 30 21 31 21 32 15 35 15 36 15 37 16 39 16 40 16 41 17 43
REMARK H PARENT 17 44 17 45
REMARK Flexibility Score: inf
ROOT
ATOM      1  C   UNL     1       0.063   0.026   0.069  1.00  0.00     0.082 C 
ATOM      2  N   UNL     1      -0.804  -0.942   0.126  1.00  0.00    -0.151 NA
ATOM      3  N   UNL     1      -2.157  -0.654   0.375  1.00  0.00    -0.125 NA
ATOM      4  C   UNL     1      -2.712   0.446  -0.029  1.00  0.00     0.183 C 
ATOM      5  N   UNL     1      -4.038   0.765   0.088  1.00  0.00    -0.359 N 
ATOM      6  S   UNL     1      -1.815   1.750  -0.778  1.00  0.00    -0.080 SA
ATOM      7  C   UNL     1      -0.317   1.474   0.191  1.00  0.00     0.046 C 
ATOM      8  H   UNL     1      -4.292   1.557  -0.493  1.00  0.00     0.163 HD
ATOM      9  H   UNL     1       0.464   2.127  -0.204  1.00  0.00     0.045 H 
ATOM     10  H   UNL     1      -0.496   1.718   1.242  1.00  0.00     0.045 H 
ENDROOT
BRANCH   1  11
ATOM     11  C   UNL     1       1.457  -0.373  -0.138  1.00  0.00     0.020 A 
ATOM     12  N   UNL     1       3.703  -0.448  -0.179  1.00  0.00    -0.345 N 
ATOM     13  C   UNL     1       3.260  -1.552  -0.879  1.00  0.00     0.016 A 
ATOM     14  C   UNL     1       2.614   0.263   0.309  1.00  0.00     0.024 A 
ATOM     15  C   UNL     1       1.883  -1.533  -0.845  1.00  0.00    -0.032 A 
ATOM     16  H   UNL     1       1.232  -2.268  -1.305  1.00  0.00     0.065 H 
BRANCH  12  17
ATOM     17  C   UNL     1       5.112  -0.096   0.022  1.00  0.00     0.040 C 
ATOM     18  H   UNL     1       5.244   0.165   1.077  1.00  0.00     0.054 H 
ATOM     19  H   UNL     1       5.720  -0.988  -0.155  1.00  0.00     0.054 H 
BRANCH  17  20
ATOM     20  C   UNL     1       5.550   1.001  -0.906  1.00  0.00    -0.072 C 
ATOM     21  C   UNL     1       6.125   2.146  -0.514  1.00  0.00    -0.101 C 
ATOM     22  H   UNL     1       6.416   2.897  -1.242  1.00  0.00     0.054 H 
ATOM     23  H   UNL     1       6.315   2.364   0.533  1.00  0.00     0.054 H 
ATOM     24  H   UNL     1       5.382   0.832  -1.968  1.00  0.00     0.059 H 
ENDBRANCH  17  20
ENDBRANCH  12  17
BRANCH  13  25
ATOM     25  C   UNL     1       4.158  -2.544  -1.531  1.00  0.00    -0.024 C 
ATOM     26  H   UNL     1       4.741  -3.088  -0.781  1.00  0.00     0.029 H 
ATOM     27  H   UNL     1       3.579  -3.278  -2.101  1.00  0.00     0.029 H 
ATOM     28  H   UNL     1       4.845  -2.051  -2.226  1.00  0.00     0.029 H 
ENDBRANCH  13  25
BRANCH  14  29
ATOM     29  C   UNL     1       2.778   1.478   1.162  1.00  0.00    -0.024 C 
ATOM     30  H   UNL     1       3.630   1.395   1.841  1.00  0.00     0.030 H 
ATOM     31  H   UNL     1       1.901   1.635   1.796  1.00  0.00     0.030 H 
ATOM     32  H   UNL     1       2.915   2.366   0.536  1.00  0.00     0.030 H 
ENDBRANCH  14  29
ENDBRANCH   1  11
BRANCH   5  33
ATOM     33  C   UNL     1      -5.124  -0.174   0.364  1.00  0.00     0.031 C 
BRANCH  33  34
ATOM     34  C   UNL     1      -6.437   0.632   0.361  1.00  0.00    -0.042 C 
ATOM     35  H   UNL     1      -7.300  -0.011   0.569  1.00  0.00     0.025 H 
ATOM     36  H   UNL     1      -6.416   1.424   1.118  1.00  0.00     0.025 H 
ATOM     37  H   UNL     1      -6.605   1.114  -0.610  1.00  0.00     0.025 H 
ENDBRANCH  33  34
BRANCH  33  38
ATOM     38  C   UNL     1      -5.199  -1.243  -0.733  1.00  0.00    -0.042 C 
ATOM     39  H   UNL     1      -6.064  -1.900  -0.585  1.00  0.00     0.025 H 
ATOM     40  H   UNL     1      -4.307  -1.878  -0.746  1.00  0.00     0.025 H 
ATOM     41  H   UNL     1      -5.289  -0.787  -1.725  1.00  0.00     0.025 H 
ENDBRANCH  33  38
BRANCH  33  42
ATOM     42  C   UNL     1      -4.958  -0.816   1.747  1.00  0.00    -0.042 C 
ATOM     43  H   UNL     1      -5.841  -1.408   2.014  1.00  0.00     0.025 H 
ATOM     44  H   UNL     1      -4.099  -1.491   1.791  1.00  0.00     0.025 H 
ATOM     45  H   UNL     1      -4.818  -0.054   2.523  1.00  0.00     0.025 H 
ENDBRANCH  33  42
ENDBRANCH   5  33
TORSDOF 9
