
     RDKit          3D

 69 72  0  0  0  0  0  0  0  0999 V2000
   -4.7157    0.4295   -3.3643 C   0  0  0  0  0  0  0  0  0  0  0  0
   -4.8381   -0.4516   -2.1030 C   0  0  0  0  0  0  0  0  0  0  0  0
   -6.0566    0.0573   -1.3003 C   0  0  0  0  0  0  0  0  0  0  0  0
   -5.1533   -1.9033   -2.5342 C   0  0  0  0  0  0  0  0  0  0  0  0
   -3.5140   -0.4143   -1.3192 C   0  0  0  0  0  0  0  0  0  0  0  0
   -2.3334   -0.9059   -1.9035 C   0  0  0  0  0  0  0  0  0  0  0  0
   -1.1168   -0.8979   -1.2097 C   0  0  0  0  0  0  0  0  0  0  0  0
   -1.0351   -0.3888    0.0898 C   0  0  0  0  0  0  0  0  0  0  0  0
    0.2101   -0.4117    0.7935 N   0  0  0  0  0  0  0  0  0  0  0  0
    0.6757    0.6281    1.6090 C   0  0  0  0  0  0  0  0  0  0  0  0
    1.5938    0.4874    2.4202 O   0  0  0  0  0  0  0  0  0  0  0  0
    0.1352    2.0035    1.4723 C   0  0  0  0  0  0  0  0  0  0  0  0
   -0.0709    2.5903    0.2246 C   0  0  0  0  0  0  0  0  0  0  0  0
   -0.5078    3.9046    0.1925 C   0  0  0  0  0  0  0  0  0  0  0  0
   -0.7479    4.6414    1.2984 N   0  0  0  0  0  0  0  0  0  0  0  0
   -0.5187    4.0528    2.4929 C   0  0  0  0  0  0  0  0  0  0  0  0
   -0.0771    2.7497    2.6312 C   0  0  0  0  0  0  0  0  0  0  0  0
    0.9331   -1.7141    0.8026 C   0  0  0  0  0  0  0  0  0  0  0  0
    2.3665   -1.5470    0.2274 C   0  0  0  0  0  0  0  0  0  0  0  0
    2.6085   -1.7799   -0.9532 O   0  0  0  0  0  0  0  0  0  0  0  0
    3.3178   -1.1096    1.1269 N   0  0  0  0  0  0  0  0  0  0  0  0
    4.7054   -0.8900    0.7733 C   0  0  0  0  0  0  0  0  0  0  0  0
    5.0339    0.5863    0.5230 C   0  0  0  0  0  0  0  0  0  0  0  0
    4.4661    1.1520   -0.7573 C   0  0  0  0  0  0  0  0  0  0  0  0
    4.8869    0.6651   -2.0049 C   0  0  0  0  0  0  0  0  0  0  0  0
    4.3623    1.1915   -3.1878 C   0  0  0  0  0  0  0  0  0  0  0  0
    3.4187    2.2139   -3.1370 C   0  0  0  0  0  0  0  0  0  0  0  0
    3.0100    2.7034   -1.9034 C   0  0  0  0  0  0  0  0  0  0  0  0
    2.0951    3.6831   -1.8575 F   0  0  0  0  0  0  0  0  0  0  0  0
    3.5257    2.1871   -0.7186 C   0  0  0  0  0  0  0  0  0  0  0  0
    0.8730   -2.5307    2.0927 C   0  0  0  0  0  0  0  0  0  0  0  0
    0.1304   -2.1793    3.2261 C   0  0  0  0  0  0  0  0  0  0  0  0
    0.1168   -3.0178    4.3401 C   0  0  0  0  0  0  0  0  0  0  0  0
    0.8215   -4.2079    4.2765 C   0  0  0  0  0  0  0  0  0  0  0  0
    1.5267   -4.6031    3.2001 N   0  0  0  0  0  0  0  0  0  0  0  0
    1.5379   -3.7603    2.1418 C   0  0  0  0  0  0  0  0  0  0  0  0
   -2.1967    0.1143    0.6782 C   0  0  0  0  0  0  0  0  0  0  0  0
   -3.4144    0.1016   -0.0173 C   0  0  0  0  0  0  0  0  0  0  0  0
   -4.4717    1.4670   -3.1038 H   0  0  0  0  0  0  0  0  0  0  0  0
   -5.6546    0.4339   -3.9285 H   0  0  0  0  0  0  0  0  0  0  0  0
   -3.9373    0.0739   -4.0480 H   0  0  0  0  0  0  0  0  0  0  0  0
   -5.9435    1.1105   -1.0127 H   0  0  0  0  0  0  0  0  0  0  0  0
   -6.2064   -0.5306   -0.3869 H   0  0  0  0  0  0  0  0  0  0  0  0
   -6.9814   -0.0171   -1.8892 H   0  0  0  0  0  0  0  0  0  0  0  0
   -6.0972   -1.9517   -3.0876 H   0  0  0  0  0  0  0  0  0  0  0  0
   -4.3814   -2.3202   -3.1905 H   0  0  0  0  0  0  0  0  0  0  0  0
   -5.2370   -2.5658   -1.6651 H   0  0  0  0  0  0  0  0  0  0  0  0
   -2.3405   -1.3039   -2.9178 H   0  0  0  0  0  0  0  0  0  0  0  0
   -0.2290   -1.2653   -1.7249 H   0  0  0  0  0  0  0  0  0  0  0  0
    0.1289    2.0618   -0.7014 H   0  0  0  0  0  0  0  0  0  0  0  0
   -0.6761    4.4146   -0.7524 H   0  0  0  0  0  0  0  0  0  0  0  0
   -0.7038    4.6796    3.3603 H   0  0  0  0  0  0  0  0  0  0  0  0
    0.1117    2.3345    3.6144 H   0  0  0  0  0  0  0  0  0  0  0  0
    0.4304   -2.3806    0.0831 H   0  0  0  0  0  0  0  0  0  0  0  0
    2.9675   -0.6531    1.9708 H   0  0  0  0  0  0  0  0  0  0  0  0
    4.9714   -1.5161   -0.0848 H   0  0  0  0  0  0  0  0  0  0  0  0
    5.2895   -1.2426    1.6327 H   0  0  0  0  0  0  0  0  0  0  0  0
    4.6862    1.1816    1.3758 H   0  0  0  0  0  0  0  0  0  0  0  0
    6.1255    0.7063    0.4940 H   0  0  0  0  0  0  0  0  0  0  0  0
    5.6167   -0.1360   -2.0675 H   0  0  0  0  0  0  0  0  0  0  0  0
    4.6905    0.7994   -4.1476 H   0  0  0  0  0  0  0  0  0  0  0  0
    3.0009    2.6297   -4.0477 H   0  0  0  0  0  0  0  0  0  0  0  0
    3.1828    2.5958    0.2280 H   0  0  0  0  0  0  0  0  0  0  0  0
   -0.4332   -1.2506    3.2688 H   0  0  0  0  0  0  0  0  0  0  0  0
   -0.4372   -2.7565    5.2356 H   0  0  0  0  0  0  0  0  0  0  0  0
    0.8387   -4.8968    5.1162 H   0  0  0  0  0  0  0  0  0  0  0  0
    2.1109   -4.1286    1.2890 H   0  0  0  0  0  0  0  0  0  0  0  0
   -2.1950    0.4908    1.6986 H   0  0  0  0  0  0  0  0  0  0  0  0
   -4.2812    0.5060    0.4967 H   0  0  0  0  0  0  0  0  0  0  0  0
  1  2  1  0
  2  3  1  0
  2  4  1  0
  2  5  1  0
  5  6  2  0
  6  7  1  0
  7  8  2  0
  8  9  1  0
  9 10  1  0
 10 11  2  0
 10 12  1  0
 12 13  2  0
 13 14  1  0
 14 15  2  0
 15 16  1  0
 16 17  2  0
  9 18  1  0
 18 19  1  0
 19 20  2  0
 19 21  1  0
 21 22  1  0
 22 23  1  0
 23 24  1  0
 24 25  2  0
 25 26  1  0
 26 27  2  0
 27 28  1  0
 28 29  1  0
 28 30  2  0
 18 31  1  0
 31 32  2  0
 32 33  1  0
 33 34  2  0
 34 35  1  0
 35 36  2  0
  8 37  1  0
 37 38  2  0
 38  5  1  0
 17 12  1  0
 30 24  1  0
 36 31  1  0
  1 39  1  0
  1 40  1  0
  1 41  1  0
  3 42  1  0
  3 43  1  0
  3 44  1  0
  4 45  1  0
  4 46  1  0
  4 47  1  0
  6 48  1  0
  7 49  1  0
 13 50  1  0
 14 51  1  0
 16 52  1  0
 17 53  1  0
 18 54  1  0
 21 55  1  0
 22 56  1  0
 22 57  1  0
 23 58  1  0
 23 59  1  0
 25 60  1  0
 26 61  1  0
 27 62  1  0
 30 63  1  0
 32 64  1  0
 33 65  1  0
 34 66  1  0
 36 67  1  0
 37 68  1  0
 38 69  1  0
M  END
