REMARK SMILES CC(C)N(CCc1c[nH]c2ccccc12)C(C)C
REMARK SMILES IDX 5 1 4 4 2 5 1 7 3 11 16 15 17 17 18 21 6 25 7 28 8 29 15 30
REMARK SMILES IDX 9 31 10 33 14 34 11 36 13 37 12 39
REMARK H PARENT 5 2 5 3 2 6 1 8 1 9 1 10 3 12 3 13 3 14 16 16 17 18 17 19
REMARK H PARENT 17 20 18 22 18 23 18 24 6 26 6 27 8 32 9 35 14 38 11 40 13 41
REMARK H PARENT 12 42
REMARK Flexibility Score: inf
ROOT
ATOM      1  C   UNL     1      -0.480  -0.167  -0.707  1.00  0.00     0.003 C 
ATOM      2  H   UNL     1      -0.281  -0.957  -1.443  1.00  0.00     0.043 H 
ATOM      3  H   UNL     1      -0.004   0.701  -1.179  1.00  0.00     0.043 H 
ENDROOT
BRANCH   1   4
ATOM      4  N   UNL     1      -1.940   0.037  -0.625  1.00  0.00    -0.298 NA
BRANCH   4   5
ATOM      5  C   UNL     1      -2.715  -1.153  -0.197  1.00  0.00     0.004 C 
ATOM      6  H   UNL     1      -2.546  -1.339   0.870  1.00  0.00     0.046 H 
BRANCH   5   7
ATOM      7  C   UNL     1      -4.230  -0.972  -0.407  1.00  0.00    -0.050 C 
ATOM      8  H   UNL     1      -4.648  -0.198   0.244  1.00  0.00     0.025 H 
ATOM      9  H   UNL     1      -4.770  -1.896  -0.172  1.00  0.00     0.025 H 
ATOM     10  H   UNL     1      -4.458  -0.709  -1.446  1.00  0.00     0.025 H 
ENDBRANCH   5   7
BRANCH   5  11
ATOM     11  C   UNL     1      -2.312  -2.437  -0.947  1.00  0.00    -0.050 C 
ATOM     12  H   UNL     1      -2.973  -3.269  -0.680  1.00  0.00     0.025 H 
ATOM     13  H   UNL     1      -2.372  -2.299  -2.032  1.00  0.00     0.025 H 
ATOM     14  H   UNL     1      -1.297  -2.758  -0.692  1.00  0.00     0.025 H 
ENDBRANCH   5  11
ENDBRANCH   4   5
BRANCH   4  15
ATOM     15  C   UNL     1      -2.391   1.331  -0.064  1.00  0.00     0.004 C 
ATOM     16  H   UNL     1      -3.413   1.490  -0.432  1.00  0.00     0.046 H 
BRANCH  15  17
ATOM     17  C   UNL     1      -2.461   1.413   1.468  1.00  0.00    -0.050 C 
ATOM     18  H   UNL     1      -3.064   0.610   1.900  1.00  0.00     0.025 H 
ATOM     19  H   UNL     1      -1.473   1.387   1.932  1.00  0.00     0.025 H 
ATOM     20  H   UNL     1      -2.931   2.356   1.771  1.00  0.00     0.025 H 
ENDBRANCH  15  17
BRANCH  15  21
ATOM     21  C   UNL     1      -1.617   2.546  -0.601  1.00  0.00    -0.050 C 
ATOM     22  H   UNL     1      -2.131   3.475  -0.328  1.00  0.00     0.025 H 
ATOM     23  H   UNL     1      -1.553   2.521  -1.694  1.00  0.00     0.025 H 
ATOM     24  H   UNL     1      -0.604   2.603  -0.189  1.00  0.00     0.025 H 
ENDBRANCH  15  21
ENDBRANCH   4  15
ENDBRANCH   1   4
BRANCH   1  25
ATOM     25  C   UNL     1       0.265  -0.500   0.597  1.00  0.00    -0.013 C 
ATOM     26  H   UNL     1       0.241   0.355   1.279  1.00  0.00     0.033 H 
ATOM     27  H   UNL     1      -0.220  -1.333   1.118  1.00  0.00     0.033 H 
BRANCH  25  28
ATOM     28  C   UNL     1       1.700  -0.859   0.349  1.00  0.00    -0.021 A 
ATOM     29  C   UNL     1       2.219  -2.135   0.244  1.00  0.00     0.005 A 
ATOM     30  C   UNL     1       2.794   0.049   0.176  1.00  0.00     0.003 A 
ATOM     31  N   UNL     1       3.564  -2.035   0.014  1.00  0.00    -0.361 N 
ATOM     32  H   UNL     1       1.742  -3.104   0.311  1.00  0.00     0.082 H 
ATOM     33  C   UNL     1       3.943  -0.714  -0.033  1.00  0.00     0.046 A 
ATOM     34  C   UNL     1       2.912   1.455   0.174  1.00  0.00    -0.053 A 
ATOM     35  H   UNL     1       4.195  -2.815  -0.105  1.00  0.00     0.166 HD
ATOM     36  C   UNL     1       5.205  -0.144  -0.242  1.00  0.00    -0.038 A 
ATOM     37  C   UNL     1       4.166   2.041  -0.035  1.00  0.00    -0.062 A 
ATOM     38  H   UNL     1       2.040   2.081   0.332  1.00  0.00     0.063 H 
ATOM     39  C   UNL     1       5.294   1.251  -0.239  1.00  0.00    -0.060 A 
ATOM     40  H   UNL     1       6.085  -0.757  -0.402  1.00  0.00     0.064 H 
ATOM     41  H   UNL     1       4.257   3.124  -0.037  1.00  0.00     0.062 H 
ATOM     42  H   UNL     1       6.260   1.724  -0.400  1.00  0.00     0.062 H 
ENDBRANCH  25  28
ENDBRANCH   1  25
TORSDOF 9
