
     RDKit          3D

 38 41  0  0  0  0  0  0  0  0999 V2000
   13.8208   35.1046  -13.8243 C   0  0  0  0  0  0  0  0  0  0  0  0
   13.6984   34.2235  -12.5630 C   0  0  0  0  0  0  0  0  0  0  0  0
   12.4799   34.7324  -11.7603 C   0  0  0  0  0  0  0  0  0  0  0  0
   13.3832   32.7718  -12.9942 C   0  0  0  0  0  0  0  0  0  0  0  0
   15.0225   34.2608  -11.7792 C   0  0  0  0  0  0  0  0  0  0  0  0
   16.2031   33.7692  -12.3635 C   0  0  0  0  0  0  0  0  0  0  0  0
   17.4197   33.7772  -11.6697 C   0  0  0  0  0  0  0  0  0  0  0  0
   17.5014   34.2863  -10.3702 C   0  0  0  0  0  0  0  0  0  0  0  0
   18.7466   34.2634   -9.6665 N   0  0  0  0  0  0  0  0  0  0  0  0
   19.2122   35.3032   -8.8510 C   0  0  0  0  0  0  0  0  0  0  0  0
   20.1303   35.1625   -8.0398 O   0  0  0  0  0  0  0  0  0  0  0  0
   18.6717   36.6786   -8.9877 C   0  0  0  0  0  0  0  0  0  0  0  0
   18.4656   37.2654  -10.2354 C   0  0  0  0  0  0  0  0  0  0  0  0
   18.0287   38.5797  -10.2675 C   0  0  0  0  0  0  0  0  0  0  0  0
   17.7886   39.3165   -9.1616 N   0  0  0  0  0  0  0  0  0  0  0  0
   18.0178   38.7279   -7.9671 C   0  0  0  0  0  0  0  0  0  0  0  0
   18.4594   37.4248   -7.8288 C   0  0  0  0  0  0  0  0  0  0  0  0
   19.4696   32.9610   -9.6574 C   0  0  1  0  0  0  0  0  0  0  0  0
   20.9030   33.1281  -10.2326 C   0  0  0  0  0  0  0  0  0  0  0  0
   21.1450   32.8952  -11.4132 O   0  0  0  0  0  0  0  0  0  0  0  0
   21.8543   33.5655   -9.3331 N   0  0  0  0  0  0  0  0  0  0  0  0
   23.2419   33.7851   -9.6867 C   0  0  0  0  0  0  0  0  0  0  0  0
   23.5704   35.2614   -9.9370 C   0  0  0  0  0  0  0  0  0  0  0  0
   23.0026   35.8271  -11.2173 C   0  0  0  0  0  0  0  0  0  0  0  0
   23.4234   35.3402  -12.4649 C   0  0  0  0  0  0  0  0  0  0  0  0
   22.8988   35.8666  -13.6478 C   0  0  0  0  0  0  0  0  0  0  0  0
   21.9552   36.8890  -13.5970 C   0  0  0  0  0  0  0  0  0  0  0  0
   21.5465   37.3785  -12.3634 C   0  0  0  0  0  0  0  0  0  0  0  0
   20.6316   38.3582  -12.3175 F   0  0  0  0  0  0  0  0  0  0  0  0
   22.0622   36.8622  -11.1786 C   0  0  0  0  0  0  0  0  0  0  0  0
   19.4095   32.1444   -8.3673 C   0  0  0  0  0  0  0  0  0  0  0  0
   18.6669   32.4958   -7.2339 C   0  0  0  0  0  0  0  0  0  0  0  0
   18.6533   31.6573   -6.1199 C   0  0  0  0  0  0  0  0  0  0  0  0
   19.3580   30.4672   -6.1835 C   0  0  0  0  0  0  0  0  0  0  0  0
   20.0632   30.0720   -7.2599 N   0  0  0  0  0  0  0  0  0  0  0  0
   20.0744   30.9148   -8.3182 C   0  0  0  0  0  0  0  0  0  0  0  0
   16.3398   34.7894   -9.7818 C   0  0  0  0  0  0  0  0  0  0  0  0
   15.1221   34.7767  -10.4773 C   0  0  0  0  0  0  0  0  0  0  0  0
  1  2  1  0
  2  3  1  0
  2  4  1  0
  2  5  1  0
  5  6  2  0
  6  7  1  0
  7  8  2  0
  8  9  1  0
  9 10  1  0
 10 11  2  0
 10 12  1  0
 12 13  2  0
 13 14  1  0
 14 15  2  0
 15 16  1  0
 16 17  2  0
 18  9  1  1
 18 19  1  0
 19 20  2  0
 19 21  1  0
 21 22  1  0
 22 23  1  0
 23 24  1  0
 24 25  2  0
 25 26  1  0
 26 27  2  0
 27 28  1  0
 28 29  1  0
 28 30  2  0
 18 31  1  0
 31 32  2  0
 32 33  1  0
 33 34  2  0
 34 35  1  0
 35 36  2  0
  8 37  1  0
 37 38  2  0
 38  5  1  0
 17 12  1  0
 30 24  1  0
 36 31  1  0
M  END
$$$$
